@<TRIPOS>MOLECULE
*****
 26 28 0 0 0
SMALL
GASTEIGER

@<TRIPOS>ATOM
      1 C         144.9933  142.4559  163.8696 C.3     1  UNL1        0.0992
      2 C         145.0445  142.6256  161.2776 C.3     1  UNL1        0.0902
      3 N         144.6502  143.1929  162.6090 N.3     1  UNL1       -0.2639
      4 C         143.9130  144.4973  162.6798 C.3     1  UNL1        0.0994
      5 C         142.4147  144.5168  162.6088 C.ar    1  UNL1       -0.0062
      6 C         141.7278  144.5800  161.2770 C.ar    1  UNL1        0.0002
      7 C         140.2296  144.5995  161.2060 C.ar    1  UNL1        0.0363
      8 C         139.4184  144.5558  162.4669 C.ar    1  UNL1        0.1346
      9 C         140.1053  144.4926  163.7989 C.ar    1  UNL1        0.0153
     10 C         141.6035  144.4731  163.8699 C.ar    1  UNL1       -0.0041
     11 C         139.0496  144.4599  164.8639 C.3     1  UNL1        0.0767
     12 C         137.7101  144.5028  164.1901 C.3     1  UNL1        0.2102
     13 O         137.9380  144.5621  162.7087 O.3     1  UNL1       -0.4754
     14 C         143.9003  141.9228  164.7478 C.2     1  UNL1       -0.0087
     15 C         143.6108  142.5775  166.0660 C.2     1  UNL1       -0.0010
     16 C         142.5178  142.0445  166.9442 C.ar    1  UNL1        0.0272
     17 C         141.2430  141.5423  166.3339 C.ar    1  UNL1        0.0022
     18 C         140.1500  141.0093  167.2121 C.ar    1  UNL1        0.0040
     19 C         140.3318  140.9785  168.7007 C.ar    1  UNL1        0.0737
     20 C         141.6066  141.4807  169.3111 C.ar    1  UNL1        0.0335
     21 C         142.6996  142.0137  168.4329 C.ar    1  UNL1        0.1400
     22 F         143.9745  142.5159  169.0433 F       1  UNL1       -0.2042
     23 C         139.2388  140.4454  169.5789 C.3     1  UNL1        0.4186
     24 F         138.1459  139.9125  170.4571 F       1  UNL1       -0.1659
     25 F         138.6615  139.7035  168.4100 F       1  UNL1       -0.1659
     26 F         139.8163  141.1874  170.7477 F       1  UNL1       -0.1659
@<TRIPOS>BOND
     1     2     3    1
     2     3     1    1
     3     1    14    1
     4    14    15    2
     5    15    16    1
     6    16    17   ar
     7    17    18   ar
     8    18    19   ar
     9    19    23    1
    10    23    24    1
    11    23    25    1
    12    23    26    1
    13    19    20   ar
    14    20    21   ar
    15    21    22    1
    16     3     4    1
    17     4     5    1
    18     5     6   ar
    19     6     7   ar
    20     7     8   ar
    21     8     9   ar
    22     9    10   ar
    23     9    11    1
    24    11    12    1
    25    12    13    1
    26    21    16   ar
    27    10     5   ar
    28    13     8    1
@<TRIPOS>MOLECULE
*****
 26 28 0 0 0
SMALL
GASTEIGER

@<TRIPOS>ATOM
      1 C         144.7928  142.1407  163.7110 C.3     1  UNL1        0.0992
      2 C         144.9205  142.6746  161.1716 C.3     1  UNL1        0.0902
      3 N         144.5059  143.0597  162.5607 N.3     1  UNL1       -0.2639
      4 C         143.8043  144.3638  162.7996 C.3     1  UNL1        0.0994
      5 C         142.3058  144.4114  162.8485 C.ar    1  UNL1       -0.0062
      6 C         141.5161  144.4937  161.5760 C.ar    1  UNL1        0.0002
      7 C         140.0176  144.5413  161.6249 C.ar    1  UNL1        0.0363
      8 C         139.3089  144.5065  162.9465 C.ar    1  UNL1        0.1346
      9 C         140.0986  144.4242  164.2191 C.ar    1  UNL1        0.0153
     10 C         141.5971  144.3767  164.1702 C.ar    1  UNL1       -0.0041
     11 C         139.1308  144.4058  165.3649 C.3     1  UNL1        0.0767
     12 C         137.7429  144.4768  164.8004 C.3     1  UNL1        0.2102
     13 O         137.8529  144.5390  163.3057 O.3     1  UNL1       -0.4754
     14 C         143.6651  141.4482  164.4170 C.2     1  UNL1       -0.0087
     15 C         142.5606  140.8141  163.6244 C.2     1  UNL1       -0.0010
     16 C         141.4329  140.1216  164.3305 C.ar    1  UNL1        0.0272
     17 C         140.4728  140.9137  165.1675 C.ar    1  UNL1        0.0022
     18 C         139.3451  140.2211  165.8736 C.ar    1  UNL1        0.0040
     19 C         139.1773  138.7363  165.7426 C.ar    1  UNL1        0.0737
     20 C         140.1374  137.9441  164.9055 C.ar    1  UNL1        0.0335
     21 C         141.2651  138.6367  164.1995 C.ar    1  UNL1        0.1400
     22 F         142.2252  137.8444  163.3624 F       1  UNL1       -0.2042
     23 C         138.0496  138.0437  166.4487 C.3     1  UNL1        0.4186
     24 F         136.9219  137.3511  167.1546 F       1  UNL1       -0.1659
     25 F         137.7677  139.2953  167.2260 F       1  UNL1       -0.1659
     26 F         138.3316  136.7922  165.6713 F       1  UNL1       -0.1659
@<TRIPOS>BOND
     1     2     3    1
     2     3     1    1
     3     1    14    1
     4    14    15    2
     5    15    16    1
     6    16    17   ar
     7    17    18   ar
     8    18    19   ar
     9    19    23    1
    10    23    24    1
    11    23    25    1
    12    23    26    1
    13    19    20   ar
    14    20    21   ar
    15    21    22    1
    16     3     4    1
    17     4     5    1
    18     5     6   ar
    19     6     7   ar
    20     7     8   ar
    21     8     9   ar
    22     9    10   ar
    23     9    11    1
    24    11    12    1
    25    12    13    1
    26    21    16   ar
    27    10     5   ar
    28    13     8    1
@<TRIPOS>MOLECULE
*****
 26 28 0 0 0
SMALL
GASTEIGER

@<TRIPOS>ATOM
      1 C         138.8957  138.1620  164.5404 C.3     1  UNL1        0.0992
      2 C         139.6385  137.7876  162.0792 C.3     1  UNL1        0.0902
      3 N         138.8523  138.5617  163.0953 N.3     1  UNL1       -0.2639
      4 C         138.0228  139.7355  162.6664 C.3     1  UNL1        0.0994
      5 C         138.4403  141.1264  163.0423 C.ar    1  UNL1       -0.0062
      6 C         137.4118  142.1243  163.4852 C.ar    1  UNL1        0.0002
      7 C         137.8293  143.5151  163.8612 C.ar    1  UNL1        0.0363
      8 C         139.2753  143.9080  163.7942 C.ar    1  UNL1        0.1346
      9 C         140.3039  142.9101  163.3512 C.ar    1  UNL1        0.0153
     10 C         139.8865  141.5193  162.9753 C.ar    1  UNL1       -0.0041
     11 C         141.6451  143.5811  163.3840 C.3     1  UNL1        0.0767
     12 C         141.4453  144.9937  163.8472 C.3     1  UNL1        0.2102
     13 O         139.9808  145.1958  164.1007 O.3     1  UNL1       -0.4754
     14 C         139.7705  138.9126  165.5003 C.2     1  UNL1       -0.0087
     15 C         139.1988  140.0334  166.3170 C.2     1  UNL1       -0.0010
     16 C         140.0736  140.7840  167.2769 C.ar    1  UNL1        0.0272
     17 C         141.2460  141.5684  166.7670 C.ar    1  UNL1        0.0022
     18 C         142.1208  142.3190  167.7269 C.ar    1  UNL1        0.0040
     19 C         141.8232  142.2852  169.1966 C.ar    1  UNL1        0.0737
     20 C         140.6507  141.5008  169.7066 C.ar    1  UNL1        0.0335
     21 C         139.7759  140.7502  168.7467 C.ar    1  UNL1        0.1400
     22 F         138.6035  139.9657  169.2566 F       1  UNL1       -0.2042
     23 C         142.6980  143.0358  170.1565 C.3     1  UNL1        0.4186
     24 F         143.5728  143.7863  171.1163 F       1  UNL1       -0.1659
     25 F         141.6402  144.0901  170.2961 F       1  UNL1       -0.1659
     26 F         143.7557  141.9814  170.0169 F       1  UNL1       -0.1659
@<TRIPOS>BOND
     1     2     3    1
     2     3     1    1
     3     1    14    1
     4    14    15    2
     5    15    16    1
     6    16    17   ar
     7    17    18   ar
     8    18    19   ar
     9    19    23    1
    10    23    24    1
    11    23    25    1
    12    23    26    1
    13    19    20   ar
    14    20    21   ar
    15    21    22    1
    16     3     4    1
    17     4     5    1
    18     5     6   ar
    19     6     7   ar
    20     7     8   ar
    21     8     9   ar
    22     9    10   ar
    23     9    11    1
    24    11    12    1
    25    12    13    1
    26    21    16   ar
    27    10     5   ar
    28    13     8    1
@<TRIPOS>MOLECULE
*****
 26 28 0 0 0
SMALL
GASTEIGER

@<TRIPOS>ATOM
      1 C         139.1344  144.9545  164.7267 C.3     1  UNL1        0.0992
      2 C         139.3573  145.1565  162.1462 C.3     1  UNL1        0.0902
      3 N         138.6989  144.5497  163.3496 N.3     1  UNL1       -0.2639
      4 C         137.6050  143.5382  163.1759 C.3     1  UNL1        0.0994
      5 C         137.9174  142.0735  163.2612 C.ar    1  UNL1       -0.0062
      6 C         138.2353  141.3007  162.0156 C.ar    1  UNL1        0.0002
      7 C         138.5477  139.8360  162.1009 C.ar    1  UNL1        0.0363
      8 C         138.5422  139.1443  163.4319 C.ar    1  UNL1        0.1346
      9 C         138.2243  139.9171  164.6775 C.ar    1  UNL1        0.0153
     10 C         137.9119  141.3818  164.5922 C.ar    1  UNL1       -0.0041
     11 C         138.2945  138.9720  165.8401 C.3     1  UNL1        0.0767
     12 C         138.6559  137.6149  165.3130 C.3     1  UNL1        0.2102
     13 O         138.8089  137.7214  163.8246 O.3     1  UNL1       -0.4754
     14 C         139.5655  143.9108  165.7141 C.2     1  UNL1       -0.0087
     15 C         140.8061  143.1064  165.4615 C.2     1  UNL1       -0.0010
     16 C         141.2373  142.0628  166.4488 C.ar    1  UNL1        0.0272
     17 C         141.3046  142.3949  167.9100 C.ar    1  UNL1        0.0022
     18 C         141.7358  141.3512  168.8973 C.ar    1  UNL1        0.0040
     19 C         142.0996  139.9753  168.4235 C.ar    1  UNL1        0.0737
     20 C         142.0322  139.6431  166.9623 C.ar    1  UNL1        0.0335
     21 C         141.6011  140.6868  165.9749 C.ar    1  UNL1        0.1400
     22 F         141.5337  140.3546  164.5137 F       1  UNL1       -0.2042
     23 C         142.5307  138.9316  169.4108 C.3     1  UNL1        0.4186
     24 F         142.9618  137.8880  170.3982 F       1  UNL1       -0.1659
     25 F         143.2574  138.2008  168.3209 F       1  UNL1       -0.1659
     26 F         141.8040  139.6625  170.5006 F       1  UNL1       -0.1659
@<TRIPOS>BOND
     1     2     3    1
     2     3     1    1
     3     1    14    1
     4    14    15    2
     5    15    16    1
     6    16    17   ar
     7    17    18   ar
     8    18    19   ar
     9    19    23    1
    10    23    24    1
    11    23    25    1
    12    23    26    1
    13    19    20   ar
    14    20    21   ar
    15    21    22    1
    16     3     4    1
    17     4     5    1
    18     5     6   ar
    19     6     7   ar
    20     7     8   ar
    21     8     9   ar
    22     9    10   ar
    23     9    11    1
    24    11    12    1
    25    12    13    1
    26    21    16   ar
    27    10     5   ar
    28    13     8    1
@<TRIPOS>MOLECULE
*****
 26 28 0 0 0
SMALL
GASTEIGER

@<TRIPOS>ATOM
      1 C         138.9065  137.6422  164.4448 C.3     1  UNL1        0.0992
      2 C         138.1213  138.2699  162.0491 C.3     1  UNL1        0.0902
      3 N         139.2170  137.8812  162.9969 N.3     1  UNL1       -0.2639
      4 C         140.6233  137.7315  162.4968 C.3     1  UNL1        0.0994
      5 C         141.5828  138.8798  162.6014 C.ar    1  UNL1       -0.0062
      6 C         141.2785  140.1765  161.9117 C.ar    1  UNL1        0.0002
      7 C         142.2380  141.3248  162.0164 C.ar    1  UNL1        0.0363
      8 C         143.5017  141.1763  162.8107 C.ar    1  UNL1        0.1346
      9 C         143.8059  139.8795  163.5004 C.ar    1  UNL1        0.0153
     10 C         142.8465  138.7312  163.3958 C.ar    1  UNL1       -0.0041
     11 C         145.1207  140.0276  164.2072 C.3     1  UNL1        0.0767
     12 C         145.6289  141.4160  163.9543 C.3     1  UNL1        0.2102
     13 O         144.6284  142.1259  163.0912 O.3     1  UNL1       -0.4754
     14 C         139.6754  138.3707  165.5070 C.2     1  UNL1       -0.0087
     15 C         139.6719  139.8703  165.5401 C.2     1  UNL1       -0.0010
     16 C         140.4408  140.5988  166.6023 C.ar    1  UNL1        0.0272
     17 C         141.6838  141.3568  166.2418 C.ar    1  UNL1        0.0022
     18 C         142.4527  142.0853  167.3039 C.ar    1  UNL1        0.0040
     19 C         141.9784  142.0557  168.7267 C.ar    1  UNL1        0.0737
     20 C         140.7353  141.2977  169.0873 C.ar    1  UNL1        0.0335
     21 C         139.9665  140.5692  168.0251 C.ar    1  UNL1        0.1400
     22 F         138.7234  139.8112  168.3857 F       1  UNL1       -0.2042
     23 C         142.7473  142.7842  169.7888 C.3     1  UNL1        0.4186
     24 F         143.5161  143.5128  170.8509 F       1  UNL1       -0.1659
     25 F         143.8637  141.7904  169.6623 F       1  UNL1       -0.1659
     26 F         141.6309  143.7780  169.9153 F       1  UNL1       -0.1659
@<TRIPOS>BOND
     1     2     3    1
     2     3     1    1
     3     1    14    1
     4    14    15    2
     5    15    16    1
     6    16    17   ar
     7    17    18   ar
     8    18    19   ar
     9    19    23    1
    10    23    24    1
    11    23    25    1
    12    23    26    1
    13    19    20   ar
    14    20    21   ar
    15    21    22    1
    16     3     4    1
    17     4     5    1
    18     5     6   ar
    19     6     7   ar
    20     7     8   ar
    21     8     9   ar
    22     9    10   ar
    23     9    11    1
    24    11    12    1
    25    12    13    1
    26    21    16   ar
    27    10     5   ar
    28    13     8    1
@<TRIPOS>MOLECULE
*****
 26 28 0 0 0
SMALL
GASTEIGER

@<TRIPOS>ATOM
      1 C         138.7480  138.1419  163.5564 C.3     1  UNL1        0.0992
      2 C         139.4295  138.0776  161.0502 C.3     1  UNL1        0.0902
      3 N         138.5847  138.6442  162.1525 N.3     1  UNL1       -0.2639
      4 C         137.5765  139.7131  161.8509 C.3     1  UNL1        0.0994
      5 C         137.9240  141.1557  162.0714 C.ar    1  UNL1       -0.0062
      6 C         137.2950  141.9142  163.2022 C.ar    1  UNL1        0.0002
      7 C         137.6425  143.3567  163.4227 C.ar    1  UNL1        0.0363
      8 C         138.6191  144.0405  162.5124 C.ar    1  UNL1        0.1346
      9 C         139.2481  143.2819  161.3815 C.ar    1  UNL1        0.0153
     10 C         138.9006  141.8394  161.1610 C.ar    1  UNL1       -0.0041
     11 C         140.1696  144.2149  160.6533 C.3     1  UNL1        0.0767
     12 C         140.1100  145.5502  161.3340 C.3     1  UNL1        0.2102
     13 O         139.1517  145.4424  162.4830 O.3     1  UNL1       -0.4754
     14 C         139.5139  138.9532  164.5590 C.2     1  UNL1       -0.0087
     15 C         138.7811  139.7290  165.6131 C.2     1  UNL1       -0.0010
     16 C         139.5470  140.5403  166.6157 C.ar    1  UNL1        0.0272
     17 C         139.5218  140.1586  168.0660 C.ar    1  UNL1        0.0022
     18 C         140.2877  140.9699  169.0685 C.ar    1  UNL1        0.0040
     19 C         141.0789  142.1630  168.6208 C.ar    1  UNL1        0.0737
     20 C         141.1041  142.5448  167.1704 C.ar    1  UNL1        0.0335
     21 C         140.3382  141.7335  166.1678 C.ar    1  UNL1        0.1400
     22 F         140.3634  142.1153  164.7174 F       1  UNL1       -0.2042
     23 C         141.8448  142.9744  169.6233 C.3     1  UNL1        0.4186
     24 F         142.6105  143.7858  170.6259 F       1  UNL1       -0.1659
     25 F         142.9894  142.0095  169.5297 F       1  UNL1       -0.1659
     26 F         140.7000  143.9392  169.7169 F       1  UNL1       -0.1659
@<TRIPOS>BOND
     1     2     3    1
     2     3     1    1
     3     1    14    1
     4    14    15    2
     5    15    16    1
     6    16    17   ar
     7    17    18   ar
     8    18    19   ar
     9    19    23    1
    10    23    24    1
    11    23    25    1
    12    23    26    1
    13    19    20   ar
    14    20    21   ar
    15    21    22    1
    16     3     4    1
    17     4     5    1
    18     5     6   ar
    19     6     7   ar
    20     7     8   ar
    21     8     9   ar
    22     9    10   ar
    23     9    11    1
    24    11    12    1
    25    12    13    1
    26    21    16   ar
    27    10     5   ar
    28    13     8    1
@<TRIPOS>MOLECULE
*****
 26 28 0 0 0
SMALL
GASTEIGER

@<TRIPOS>ATOM
      1 C         139.4304  140.1373  169.4139 C.3     1  UNL1        0.0992
      2 C         140.9301  141.0867  171.3111 C.3     1  UNL1        0.0902
      3 N         140.2374  141.2617  169.9922 N.3     1  UNL1       -0.2639
      4 C         140.3515  142.5612  169.2517 C.3     1  UNL1        0.0994
      5 C         141.0539  142.6104  167.9271 C.ar    1  UNL1       -0.0062
      6 C         142.5053  142.2439  167.8338 C.ar    1  UNL1        0.0002
      7 C         143.2076  142.2931  166.5093 C.ar    1  UNL1        0.0363
      8 C         142.4584  142.7089  165.2781 C.ar    1  UNL1        0.1346
      9 C         141.0068  143.0753  165.3714 C.ar    1  UNL1        0.0153
     10 C         140.3045  143.0261  166.6959 C.ar    1  UNL1       -0.0041
     11 C         140.5324  143.4439  163.9970 C.3     1  UNL1        0.0767
     12 C         141.6908  143.3052  163.0542 C.3     1  UNL1        0.2102
     13 O         142.8811  142.8509  163.8459 O.3     1  UNL1       -0.4754
     14 C         139.5775  139.7762  167.9654 C.2     1  UNL1       -0.0087
     15 C         138.3629  139.6714  167.0915 C.2     1  UNL1       -0.0010
     16 C         138.5099  139.3104  165.6430 C.ar    1  UNL1        0.0272
     17 C         138.9525  137.9308  165.2551 C.ar    1  UNL1        0.0022
     18 C         139.0995  137.5698  163.8066 C.ar    1  UNL1        0.0040
     19 C         138.8040  138.5885  162.7460 C.ar    1  UNL1        0.0737
     20 C         138.3614  139.9682  163.1339 C.ar    1  UNL1        0.0335
     21 C         138.2143  140.3292  164.5824 C.ar    1  UNL1        0.1400
     22 F         137.7717  141.7089  164.9703 F       1  UNL1       -0.2042
     23 C         138.9510  138.2275  161.2976 C.3     1  UNL1        0.4186
     24 F         139.0982  137.8664  159.8492 F       1  UNL1       -0.1659
     25 F         137.6117  138.8384  161.0093 F       1  UNL1       -0.1659
     26 F         140.2904  137.6166  161.5859 F       1  UNL1       -0.1659
@<TRIPOS>BOND
     1     2     3    1
     2     3     1    1
     3     1    14    1
     4    14    15    2
     5    15    16    1
     6    16    17   ar
     7    17    18   ar
     8    18    19   ar
     9    19    23    1
    10    23    24    1
    11    23    25    1
    12    23    26    1
    13    19    20   ar
    14    20    21   ar
    15    21    22    1
    16     3     4    1
    17     4     5    1
    18     5     6   ar
    19     6     7   ar
    20     7     8   ar
    21     8     9   ar
    22     9    10   ar
    23     9    11    1
    24    11    12    1
    25    12    13    1
    26    21    16   ar
    27    10     5   ar
    28    13     8    1
@<TRIPOS>MOLECULE
*****
 26 28 0 0 0
SMALL
GASTEIGER

@<TRIPOS>ATOM
      1 C         138.8175  138.1506  164.3962 C.3     1  UNL1        0.0992
      2 C         138.9405  138.0834  161.8019 C.3     1  UNL1        0.0902
      3 N         139.5728  137.8348  163.1392 N.3     1  UNL1       -0.2639
      4 C         140.9602  137.2703  163.2196 C.3     1  UNL1        0.0994
      5 C         142.1154  138.1650  163.5594 C.ar    1  UNL1       -0.0062
      6 C         142.7530  138.0846  164.9146 C.ar    1  UNL1        0.0002
      7 C         143.9081  138.9792  165.2543 C.ar    1  UNL1        0.0363
      8 C         144.4255  139.9542  164.2387 C.ar    1  UNL1        0.1346
      9 C         143.7879  140.0347  162.8834 C.ar    1  UNL1        0.0153
     10 C         142.6328  139.1401  162.5436 C.ar    1  UNL1       -0.0041
     11 C         144.5092  141.0861  162.0934 C.3     1  UNL1        0.0767
     12 C         145.5927  141.6555  162.9605 C.3     1  UNL1        0.2102
     13 O         145.5410  140.9560  164.2864 O.3     1  UNL1       -0.4754
     14 C         139.5152  138.8224  165.5416 C.2     1  UNL1       -0.0087
     15 C         139.9304  140.2594  165.4281 C.2     1  UNL1       -0.0010
     16 C         140.6280  140.9312  166.5735 C.ar    1  UNL1        0.0272
     17 C         140.1875  140.6622  167.9819 C.ar    1  UNL1        0.0022
     18 C         140.8852  141.3340  169.1273 C.ar    1  UNL1        0.0040
     19 C         142.0234  142.2748  168.8643 C.ar    1  UNL1        0.0737
     20 C         142.4640  142.5439  167.4560 C.ar    1  UNL1        0.0335
     21 C         141.7664  141.8721  166.3106 C.ar    1  UNL1        0.1400
     22 F         142.2070  142.1411  164.9022 F       1  UNL1       -0.2042
     23 C         142.7211  142.9466  170.0098 C.3     1  UNL1        0.4186
     24 F         143.4188  143.6183  171.1551 F       1  UNL1       -0.1659
     25 F         141.5963  143.9333  170.1162 F       1  UNL1       -0.1659
     26 F         143.8459  141.9599  169.9033 F       1  UNL1       -0.1659
@<TRIPOS>BOND
     1     2     3    1
     2     3     1    1
     3     1    14    1
     4    14    15    2
     5    15    16    1
     6    16    17   ar
     7    17    18   ar
     8    18    19   ar
     9    19    23    1
    10    23    24    1
    11    23    25    1
    12    23    26    1
    13    19    20   ar
    14    20    21   ar
    15    21    22    1
    16     3     4    1
    17     4     5    1
    18     5     6   ar
    19     6     7   ar
    20     7     8   ar
    21     8     9   ar
    22     9    10   ar
    23     9    11    1
    24    11    12    1
    25    12    13    1
    26    21    16   ar
    27    10     5   ar
    28    13     8    1
@<TRIPOS>MOLECULE
*****
 26 28 0 0 0
SMALL
GASTEIGER

@<TRIPOS>ATOM
      1 C         138.3236  143.4904  164.1502 C.3     1  UNL1        0.0992
      2 C         138.0963  142.5983  161.7208 C.3     1  UNL1        0.0902
      3 N         138.8060  143.4508  162.7305 N.3     1  UNL1       -0.2639
      4 C         139.9980  144.2637  162.3204 C.3     1  UNL1        0.0994
      5 C         141.3590  143.9185  162.8486 C.ar    1  UNL1       -0.0062
      6 C         142.2157  144.9831  163.4669 C.ar    1  UNL1        0.0002
      7 C         143.5765  144.6380  163.9951 C.ar    1  UNL1        0.0363
      8 C         144.0806  143.2281  163.9049 C.ar    1  UNL1        0.1346
      9 C         143.2238  142.1634  163.2865 C.ar    1  UNL1        0.0153
     10 C         141.8630  142.5086  162.7584 C.ar    1  UNL1       -0.0041
     11 C         143.9830  140.8707  163.3359 C.3     1  UNL1        0.0767
     12 C         145.3090  141.1364  163.9848 C.3     1  UNL1        0.2102
     13 O         145.3693  142.5934  164.3365 O.3     1  UNL1       -0.4754
     14 C         139.0133  142.6702  165.1998 C.2     1  UNL1       -0.0087
     15 C         140.1655  143.2486  165.9666 C.2     1  UNL1       -0.0010
     16 C         140.8552  142.4284  167.0161 C.ar    1  UNL1        0.0272
     17 C         141.6397  141.2122  166.6222 C.ar    1  UNL1        0.0022
     18 C         142.3294  140.3920  167.6718 C.ar    1  UNL1        0.0040
     19 C         142.2346  140.7881  169.1154 C.ar    1  UNL1        0.0737
     20 C         141.4501  142.0043  169.5095 C.ar    1  UNL1        0.0335
     21 C         140.7604  142.8245  168.4599 C.ar    1  UNL1        0.1400
     22 F         139.9759  144.0408  168.8539 F       1  UNL1       -0.2042
     23 C         142.9242  139.9679  170.1650 C.3     1  UNL1        0.4186
     24 F         143.6138  139.1476  171.2145 F       1  UNL1       -0.1659
     25 F         143.9281  141.0648  170.3625 F       1  UNL1       -0.1659
     26 F         141.9203  138.8710  169.9674 F       1  UNL1       -0.1659
@<TRIPOS>BOND
     1     2     3    1
     2     3     1    1
     3     1    14    1
     4    14    15    2
     5    15    16    1
     6    16    17   ar
     7    17    18   ar
     8    18    19   ar
     9    19    23    1
    10    23    24    1
    11    23    25    1
    12    23    26    1
    13    19    20   ar
    14    20    21   ar
    15    21    22    1
    16     3     4    1
    17     4     5    1
    18     5     6   ar
    19     6     7   ar
    20     7     8   ar
    21     8     9   ar
    22     9    10   ar
    23     9    11    1
    24    11    12    1
    25    12    13    1
    26    21    16   ar
    27    10     5   ar
    28    13     8    1
