@<TRIPOS>MOLECULE
*****
 40 44 0 0 0
SMALL
GASTEIGER

@<TRIPOS>ATOM
      1 C         140.0561  139.5323  159.1434 C.3     1  UNL1        0.1631
      2 N         141.0077  138.5749  158.4893 N.ar    1  UNL1       -0.3048
      3 C         142.4040  138.2703  158.9449 C.ar    1  UNL1        0.1441
      4 N         142.9894  137.2612  158.0019 N.ar    1  UNL1       -0.2268
      5 C         141.9549  136.9423  156.9636 C.ar    1  UNL1        0.0987
      6 C         141.9699  136.0174  155.7828 C.ar    1  UNL1        0.0206
      7 C         140.7601  135.9045  154.9032 C.ar    1  UNL1        0.0016
      8 C         139.5353  136.7164  155.2044 C.ar    1  UNL1        0.0016
      9 C         139.5203  137.6413  156.3852 C.ar    1  UNL1        0.0188
     10 C         140.7301  137.7542  157.2648 C.ar    1  UNL1        0.0792
     11 C         143.0938  138.8694  160.1345 C.ar    1  UNL1        0.0342
     12 C         143.5987  140.2807  160.0765 C.ar    1  UNL1        0.0039
     13 C         144.2885  140.8799  161.2661 C.ar    1  UNL1        0.0115
     14 C         144.4733  140.0678  162.5136 C.ar    1  UNL1        0.0577
     15 CL        145.1631  140.6671  163.7033 Cl      1  UNL1       -0.0822
     16 C         143.9684  138.6566  162.5716 C.ar    1  UNL1        0.0115
     17 C         143.2786  138.0574  161.3820 C.ar    1  UNL1        0.0039
     18 C         139.6467  140.7872  158.4311 C.3     1  UNL1        0.0297
     19 C         138.1955  141.1532  158.3305 C.3     1  UNL1        0.0024
     20 C         137.7861  142.4082  157.6182 C.3     1  UNL1        0.0001
     21 C         138.8279  143.2973  157.0065 C.3     1  UNL1        0.0000
     22 C         140.2791  142.9313  157.1071 C.3     1  UNL1        0.0001
     23 C         140.6885  141.6764  157.8194 C.3     1  UNL1        0.0024
     24 N         140.1239  139.8838  161.7168 N.am    1  UNL1       -0.2824
     25 C         139.5138  139.2347  160.5100 C.2     1  UNL1        0.2468
     26 O         138.3746  138.3197  160.8496 O.2     1  UNL1       -0.2727
     27 H         140.8804  140.5051  161.6120 H       1  UNL1        0.1549
     28 C         138.4970  138.9906  165.8162 C.ar    1  UNL1        0.0140
     29 C         139.5015  138.0688  165.1908 C.ar    1  UNL1        0.0024
     30 C         140.0438  138.3666  163.8242 C.ar    1  UNL1        0.0147
     31 C         139.5816  139.5861  163.0832 C.ar    1  UNL1        0.0542
     32 C         138.5771  140.5079  163.7087 C.ar    1  UNL1        0.0849
     33 C         138.0348  140.2101  165.0751 C.ar    1  UNL1        0.0062
     34 C         138.1148  141.7274  162.9677 C.3     1  UNL1        0.4197
     35 F         137.6526  142.9469  162.2267 F       1  UNL1       -0.1658
     36 F         137.1084  140.8966  162.2281 F       1  UNL1       -0.1658
     37 F         139.1701  142.4034  163.7921 F       1  UNL1       -0.1658
     38 O         138.5101  139.4034  168.3813 O.co2   1  UNL1       -0.5446
     39 C         137.9546  138.6929  167.1827 C.2     1  UNL1        0.0729
     40 O         136.8568  137.6847  167.3505 O.co2   1  UNL1       -0.5446
@<TRIPOS>UNITY_ATOM_ATTR
38 1
charge -1
@<TRIPOS>BOND
     1    38    39   ar
     2    39    40   ar
     3    39    28    1
     4    28    29   ar
     5    29    30   ar
     6    30    31   ar
     7    31    24    1
     8    24    25   am
     9    25    26    2
    10    25     1    1
    11     1    18    1
    12    18    19    1
    13    19    20    1
    14    20    21    1
    15    21    22    1
    16    22    23    1
    17     1     2    1
    18     2     3   ar
    19     3    11    1
    20    11    12   ar
    21    12    13   ar
    22    13    14   ar
    23    14    15    1
    24    14    16   ar
    25    16    17   ar
    26     3     4   ar
    27     4     5   ar
    28     5     6   ar
    29     6     7   ar
    30     7     8   ar
    31     8     9   ar
    32     9    10   ar
    33    31    32   ar
    34    32    34    1
    35    34    35    1
    36    34    36    1
    37    34    37    1
    38    32    33   ar
    39    33    28   ar
    40    23    18    1
    41    10     2   ar
    42    17    11   ar
    43    10     5   ar
    44    24    27    1
@<TRIPOS>MOLECULE
*****
 40 44 0 0 0
SMALL
GASTEIGER

@<TRIPOS>ATOM
      1 C         140.7216  141.7549  160.0914 C.3     1  UNL1        0.1631
      2 N         140.8723  143.1736  159.6280 N.ar    1  UNL1       -0.3048
      3 C         141.6543  144.2493  160.3216 C.ar    1  UNL1        0.1441
      4 N         141.5327  145.5062  159.5120 N.ar    1  UNL1       -0.2268
      5 C         140.6755  145.2071  158.3179 C.ar    1  UNL1        0.0987
      6 C         140.2138  146.0614  157.1746 C.ar    1  UNL1        0.0206
      7 C         139.3440  145.4739  156.1030 C.ar    1  UNL1        0.0016
      8 C         138.9358  144.0323  156.1746 C.ar    1  UNL1        0.0016
      9 C         139.3974  143.1781  157.3180 C.ar    1  UNL1        0.0188
     10 C         140.2673  143.7655  158.3896 C.ar    1  UNL1        0.0792
     11 C         142.4230  144.0952  161.6004 C.ar    1  UNL1        0.0342
     12 C         143.6915  143.2949  161.6212 C.ar    1  UNL1        0.0039
     13 C         144.4602  143.1409  162.9000 C.ar    1  UNL1        0.0115
     14 C         143.9605  143.7870  164.1579 C.ar    1  UNL1        0.0577
     15 CL        144.7293  143.6329  165.4367 Cl      1  UNL1       -0.0822
     16 C         142.6920  144.5874  164.1372 C.ar    1  UNL1        0.0115
     17 C         141.9233  144.7415  162.8585 C.ar    1  UNL1        0.0039
     18 C         141.1488  140.6258  159.2012 C.3     1  UNL1        0.0297
     19 C         140.1601  139.5713  158.8005 C.3     1  UNL1        0.0024
     20 C         140.5872  138.4420  157.9104 C.3     1  UNL1        0.0001
     21 C         142.0032  138.3673  157.4209 C.3     1  UNL1        0.0000
     22 C         142.9919  139.4217  157.8216 C.3     1  UNL1        0.0001
     23 C         142.5647  140.5510  158.7118 C.3     1  UNL1        0.0024
     24 N         140.7293  140.3755  162.2931 N.am    1  UNL1       -0.2824
     25 C         140.1437  141.4654  161.4450 C.2     1  UNL1        0.2468
     26 O         138.9894  142.1628  162.1018 O.2     1  UNL1       -0.2727
     27 H         141.4930  139.8502  161.9613 H       1  UNL1        0.1549
     28 C         138.9957  139.5073  166.3540 C.ar    1  UNL1        0.0140
     29 C         140.0943  140.5181  166.2080 C.ar    1  UNL1        0.0024
     30 C         140.6722  140.8075  164.8543 C.ar    1  UNL1        0.0147
     31 C         140.1514  140.0861  163.6466 C.ar    1  UNL1        0.0542
     32 C         139.0528  139.0753  163.7926 C.ar    1  UNL1        0.0849
     33 C         138.4750  138.7859  165.1462 C.ar    1  UNL1        0.0062
     34 C         138.5321  138.3539  162.5850 C.3     1  UNL1        0.4197
     35 F         138.0113  137.6324  161.3773 F       1  UNL1       -0.1658
     36 F         137.5494  139.4619  162.3468 F       1  UNL1       -0.1658
     37 F         139.5709  137.3420  162.9686 F       1  UNL1       -0.1658
     38 O         137.2543  138.2806  167.8416 O.co2   1  UNL1       -0.5446
     39 C         138.4177  139.2179  167.7075 C.2     1  UNL1        0.0729
     40 O         139.0033  139.8658  168.9271 O.co2   1  UNL1       -0.5446
@<TRIPOS>UNITY_ATOM_ATTR
38 1
charge -1
@<TRIPOS>BOND
     1    38    39   ar
     2    39    40   ar
     3    39    28    1
     4    28    29   ar
     5    29    30   ar
     6    30    31   ar
     7    31    24    1
     8    24    25   am
     9    25    26    2
    10    25     1    1
    11     1    18    1
    12    18    19    1
    13    19    20    1
    14    20    21    1
    15    21    22    1
    16    22    23    1
    17     1     2    1
    18     2     3   ar
    19     3    11    1
    20    11    12   ar
    21    12    13   ar
    22    13    14   ar
    23    14    15    1
    24    14    16   ar
    25    16    17   ar
    26     3     4   ar
    27     4     5   ar
    28     5     6   ar
    29     6     7   ar
    30     7     8   ar
    31     8     9   ar
    32     9    10   ar
    33    31    32   ar
    34    32    34    1
    35    34    35    1
    36    34    36    1
    37    34    37    1
    38    32    33   ar
    39    33    28   ar
    40    23    18    1
    41    10     2   ar
    42    17    11   ar
    43    10     5   ar
    44    24    27    1
@<TRIPOS>MOLECULE
*****
 40 44 0 0 0
SMALL
GASTEIGER

@<TRIPOS>ATOM
      1 C         141.3763  141.4777  159.9702 C.3     1  UNL1        0.1631
      2 N         141.2456  142.9275  159.6081 N.ar    1  UNL1       -0.3048
      3 C         141.7826  144.0850  160.3966 C.ar    1  UNL1        0.1441
      4 N         141.4239  145.3472  159.6697 N.ar    1  UNL1       -0.2268
      5 C         140.6653  144.9697  158.4320 C.ar    1  UNL1        0.0987
      6 C         140.0605  145.7944  157.3348 C.ar    1  UNL1        0.0206
      7 C         139.3456  145.1237  156.1994 C.ar    1  UNL1        0.0016
      8 C         139.2354  143.6283  156.1613 C.ar    1  UNL1        0.0016
      9 C         139.8401  142.8035  157.2585 C.ar    1  UNL1        0.0188
     10 C         140.5551  143.4742  158.3939 C.ar    1  UNL1        0.0792
     11 C         142.5445  143.9960  161.6856 C.ar    1  UNL1        0.0342
     12 C         143.9034  143.3615  161.7113 C.ar    1  UNL1        0.0039
     13 C         144.6653  143.2725  163.0003 C.ar    1  UNL1        0.0115
     14 C         144.0683  143.8180  164.2636 C.ar    1  UNL1        0.0577
     15 CL        144.8303  143.7290  165.5526 Cl      1  UNL1       -0.0822
     16 C         142.7094  144.4526  164.2379 C.ar    1  UNL1        0.0115
     17 C         141.9475  144.5416  162.9490 C.ar    1  UNL1        0.0039
     18 C         141.9131  140.4997  158.9677 C.3     1  UNL1        0.0297
     19 C         143.1508  140.8290  158.1869 C.3     1  UNL1        0.0024
     20 C         143.6877  139.8510  157.1843 C.3     1  UNL1        0.0001
     21 C         142.9867  138.5434  156.9625 C.3     1  UNL1        0.0000
     22 C         141.7490  138.2141  157.7433 C.3     1  UNL1        0.0001
     23 C         141.2122  139.1922  158.7458 C.3     1  UNL1        0.0024
     24 N         139.5456  140.6191  161.6017 N.am    1  UNL1       -0.2824
     25 C         140.9701  141.0060  161.3351 C.2     1  UNL1        0.2468
     26 O         141.8521  140.8614  162.5398 O.2     1  UNL1       -0.2727
     27 H         138.8772  140.6748  160.8811 H       1  UNL1        0.1549
     28 C         138.3275  139.2039  165.6961 C.ar    1  UNL1        0.0140
     29 C         138.9328  138.2404  164.7188 C.ar    1  UNL1        0.0024
     30 C         139.3389  138.7121  163.3539 C.ar    1  UNL1        0.0147
     31 C         139.1396  140.1475  162.9665 C.ar    1  UNL1        0.0542
     32 C         138.5343  141.1110  163.9438 C.ar    1  UNL1        0.0849
     33 C         138.1282  140.6393  165.3085 C.ar    1  UNL1        0.0062
     34 C         138.3350  142.5464  163.5563 C.3     1  UNL1        0.4197
     35 F         138.1357  143.9817  163.1689 F       1  UNL1       -0.1658
     36 F         139.6809  142.8866  164.1243 F       1  UNL1       -0.1658
     37 F         137.0233  142.0337  163.0398 F       1  UNL1       -0.1658
     38 O         138.5632  139.3240  168.2807 O.co2   1  UNL1       -0.5446
     39 C         137.9214  138.7323  167.0608 C.2     1  UNL1        0.0729
     40 O         136.8736  137.6688  167.2057 O.co2   1  UNL1       -0.5446
@<TRIPOS>UNITY_ATOM_ATTR
38 1
charge -1
@<TRIPOS>BOND
     1    38    39   ar
     2    39    40   ar
     3    39    28    1
     4    28    29   ar
     5    29    30   ar
     6    30    31   ar
     7    31    24    1
     8    24    25   am
     9    25    26    2
    10    25     1    1
    11     1    18    1
    12    18    19    1
    13    19    20    1
    14    20    21    1
    15    21    22    1
    16    22    23    1
    17     1     2    1
    18     2     3   ar
    19     3    11    1
    20    11    12   ar
    21    12    13   ar
    22    13    14   ar
    23    14    15    1
    24    14    16   ar
    25    16    17   ar
    26     3     4   ar
    27     4     5   ar
    28     5     6   ar
    29     6     7   ar
    30     7     8   ar
    31     8     9   ar
    32     9    10   ar
    33    31    32   ar
    34    32    34    1
    35    34    35    1
    36    34    36    1
    37    34    37    1
    38    32    33   ar
    39    33    28   ar
    40    23    18    1
    41    10     2   ar
    42    17    11   ar
    43    10     5   ar
    44    24    27    1
@<TRIPOS>MOLECULE
*****
 40 44 0 0 0
SMALL
GASTEIGER

@<TRIPOS>ATOM
      1 C         139.5439  139.9272  159.0256 C.3     1  UNL1        0.1631
      2 N         139.2119  141.2381  158.3765 N.ar    1  UNL1       -0.3048
      3 C         139.9246  142.5386  158.6011 C.ar    1  UNL1        0.1441
      4 N         139.2621  143.5829  157.7522 N.ar    1  UNL1       -0.2268
      5 C         138.1399  142.9277  157.0030 C.ar    1  UNL1        0.0987
      6 C         137.1423  143.4634  156.0193 C.ar    1  UNL1        0.0206
      7 C         136.1136  142.5500  155.4214 C.ar    1  UNL1        0.0016
      8 C         136.0826  141.1008  155.8071 C.ar    1  UNL1        0.0016
      9 C         137.0802  140.5650  156.7909 C.ar    1  UNL1        0.0188
     10 C         138.1088  141.4785  157.3888 C.ar    1  UNL1        0.0792
     11 C         141.0945  142.7567  159.5143 C.ar    1  UNL1        0.0342
     12 C         140.9066  143.4820  160.8137 C.ar    1  UNL1        0.0039
     13 C         142.0764  143.7000  161.7269 C.ar    1  UNL1        0.0115
     14 C         143.4341  143.1928  161.3406 C.ar    1  UNL1        0.0577
     15 CL        144.6040  143.4108  162.2539 Cl      1  UNL1       -0.0822
     16 C         143.6220  142.4674  160.0412 C.ar    1  UNL1        0.0115
     17 C         142.4522  142.2494  159.1280 C.ar    1  UNL1        0.0039
     18 C         140.3740  138.9159  158.2920 C.3     1  UNL1        0.0297
     19 C         141.8021  138.6871  158.6899 C.3     1  UNL1        0.0024
     20 C         142.6323  137.6758  157.9564 C.3     1  UNL1        0.0001
     21 C         142.0343  136.8933  156.8249 C.3     1  UNL1        0.0000
     22 C         140.6063  137.1221  156.4270 C.3     1  UNL1        0.0001
     23 C         139.7761  138.1334  157.1606 C.3     1  UNL1        0.0024
     24 N         139.9182  139.9055  161.5965 N.am    1  UNL1       -0.2824
     25 C         139.0458  139.6275  160.4085 C.2     1  UNL1        0.2468
     26 O         137.7117  139.0527  160.7826 O.2     1  UNL1       -0.2727
     27 H         140.8178  140.2847  161.4688 H       1  UNL1        0.1549
     28 C         138.4238  139.0064  165.7449 C.ar    1  UNL1        0.0140
     29 C         139.1753  137.9609  164.9754 C.ar    1  UNL1        0.0024
     30 C         139.6735  138.2607  163.5926 C.ar    1  UNL1        0.0147
     31 C         139.4201  139.6059  162.9793 C.ar    1  UNL1        0.0542
     32 C         138.6685  140.6514  163.7487 C.ar    1  UNL1        0.0849
     33 C         138.1704  140.3517  165.1315 C.ar    1  UNL1        0.0062
     34 C         138.4151  141.9966  163.1354 C.3     1  UNL1        0.4197
     35 F         138.1616  143.3419  162.5221 F       1  UNL1       -0.1658
     36 F         137.1029  141.5053  162.5998 F       1  UNL1       -0.1658
     37 F         139.7483  142.3204  163.7419 F       1  UNL1       -0.1658
     38 O         136.8169  137.7164  167.3272 O.co2   1  UNL1       -0.5446
     39 C         137.9256  138.7068  167.1276 C.2     1  UNL1        0.0729
     40 O         138.5362  139.3976  168.3108 O.co2   1  UNL1       -0.5446
@<TRIPOS>UNITY_ATOM_ATTR
38 1
charge -1
@<TRIPOS>BOND
     1    38    39   ar
     2    39    40   ar
     3    39    28    1
     4    28    29   ar
     5    29    30   ar
     6    30    31   ar
     7    31    24    1
     8    24    25   am
     9    25    26    2
    10    25     1    1
    11     1    18    1
    12    18    19    1
    13    19    20    1
    14    20    21    1
    15    21    22    1
    16    22    23    1
    17     1     2    1
    18     2     3   ar
    19     3    11    1
    20    11    12   ar
    21    12    13   ar
    22    13    14   ar
    23    14    15    1
    24    14    16   ar
    25    16    17   ar
    26     3     4   ar
    27     4     5   ar
    28     5     6   ar
    29     6     7   ar
    30     7     8   ar
    31     8     9   ar
    32     9    10   ar
    33    31    32   ar
    34    32    34    1
    35    34    35    1
    36    34    36    1
    37    34    37    1
    38    32    33   ar
    39    33    28   ar
    40    23    18    1
    41    10     2   ar
    42    17    11   ar
    43    10     5   ar
    44    24    27    1
@<TRIPOS>MOLECULE
*****
 40 44 0 0 0
SMALL
GASTEIGER

@<TRIPOS>ATOM
      1 C         140.8352  141.7701  160.1701 C.3     1  UNL1        0.1631
      2 N         140.9618  143.1833  159.6836 N.ar    1  UNL1       -0.3048
      3 C         141.7201  144.2850  160.3628 C.ar    1  UNL1        0.1441
      4 N         141.5794  145.5255  159.5314 N.ar    1  UNL1       -0.2268
      5 C         140.7342  145.1905  158.3384 C.ar    1  UNL1        0.0987
      6 C         140.2628  146.0166  157.1785 C.ar    1  UNL1        0.0206
      7 C         139.4097  145.3951  156.1126 C.ar    1  UNL1        0.0016
      8 C         139.0280  143.9475  156.2066 C.ar    1  UNL1        0.0016
      9 C         139.4994  143.1215  157.3665 C.ar    1  UNL1        0.0188
     10 C         140.3525  143.7429  158.4324 C.ar    1  UNL1        0.0792
     11 C         142.4848  144.1668  161.6479 C.ar    1  UNL1        0.0342
     12 C         143.7585  143.3759  161.6926 C.ar    1  UNL1        0.0039
     13 C         144.5232  143.2578  162.9776 C.ar    1  UNL1        0.0115
     14 C         144.0141  143.9305  164.2178 C.ar    1  UNL1        0.0577
     15 CL        144.7789  143.8123  165.5029 Cl      1  UNL1       -0.0822
     16 C         142.7404  144.7214  164.1731 C.ar    1  UNL1        0.0115
     17 C         141.9757  144.8396  162.8882 C.ar    1  UNL1        0.0039
     18 C         141.2747  140.6335  159.2956 C.3     1  UNL1        0.0297
     19 C         142.7289  140.4528  158.9749 C.3     1  UNL1        0.0024
     20 C         143.1686  139.3162  158.1003 C.3     1  UNL1        0.0001
     21 C         142.1540  138.3602  157.5465 C.3     1  UNL1        0.0000
     22 C         140.6999  138.5409  157.8672 C.3     1  UNL1        0.0001
     23 C         140.2602  139.6775  158.7417 C.3     1  UNL1        0.0024
     24 N         140.6223  140.2232  162.2467 N.am    1  UNL1       -0.2824
     25 C         140.2689  141.4934  161.5314 C.2     1  UNL1        0.2468
     26 O         139.3411  142.3707  162.3186 O.2     1  UNL1       -0.2727
     27 H         141.2259  139.5711  161.8229 H       1  UNL1        0.1549
     28 C         138.9233  139.3934  166.3303 C.ar    1  UNL1        0.0140
     29 C         138.0159  139.4468  165.1370 C.ar    1  UNL1        0.0024
     30 C         138.5823  139.7234  163.7758 C.ar    1  UNL1        0.0147
     31 C         140.0561  139.9466  163.6079 C.ar    1  UNL1        0.0542
     32 C         140.9635  139.8933  164.8011 C.ar    1  UNL1        0.0849
     33 C         140.3971  139.6167  166.1622 C.ar    1  UNL1        0.0062
     34 C         142.4372  140.1165  164.6332 C.3     1  UNL1        0.4197
     35 F         143.9110  140.3398  164.4652 F       1  UNL1       -0.1658
     36 F         142.6365  138.6445  164.4245 F       1  UNL1       -0.1658
     37 F         142.0598  141.5504  164.8608 F       1  UNL1       -0.1658
     38 O         137.2046  138.1692  167.8460 O.co2   1  UNL1       -0.5446
     39 C         138.3571  139.1168  167.6914 C.2     1  UNL1        0.0729
     40 O         138.9433  139.7879  168.8981 O.co2   1  UNL1       -0.5446
@<TRIPOS>UNITY_ATOM_ATTR
38 1
charge -1
@<TRIPOS>BOND
     1    38    39   ar
     2    39    40   ar
     3    39    28    1
     4    28    29   ar
     5    29    30   ar
     6    30    31   ar
     7    31    24    1
     8    24    25   am
     9    25    26    2
    10    25     1    1
    11     1    18    1
    12    18    19    1
    13    19    20    1
    14    20    21    1
    15    21    22    1
    16    22    23    1
    17     1     2    1
    18     2     3   ar
    19     3    11    1
    20    11    12   ar
    21    12    13   ar
    22    13    14   ar
    23    14    15    1
    24    14    16   ar
    25    16    17   ar
    26     3     4   ar
    27     4     5   ar
    28     5     6   ar
    29     6     7   ar
    30     7     8   ar
    31     8     9   ar
    32     9    10   ar
    33    31    32   ar
    34    32    34    1
    35    34    35    1
    36    34    36    1
    37    34    37    1
    38    32    33   ar
    39    33    28   ar
    40    23    18    1
    41    10     2   ar
    42    17    11   ar
    43    10     5   ar
    44    24    27    1
@<TRIPOS>MOLECULE
*****
 40 44 0 0 0
SMALL
GASTEIGER

@<TRIPOS>ATOM
      1 C         140.2602  141.4472  163.0678 C.3     1  UNL1        0.1631
      2 N         141.4877  140.9184  163.7487 N.ar    1  UNL1       -0.3048
      3 C         141.5127  139.9485  164.8928 C.ar    1  UNL1        0.1441
      4 N         142.9461  139.6973  165.2562 N.ar    1  UNL1       -0.2268
      5 C         143.8070  140.5118  164.3368 C.ar    1  UNL1        0.0987
      6 C         145.2953  140.6638  164.2276 C.ar    1  UNL1        0.0206
      7 C         145.8822  141.5705  163.1867 C.ar    1  UNL1        0.0016
      8 C         144.9809  142.3252  162.2550 C.ar    1  UNL1        0.0016
      9 C         143.4927  142.1732  162.3642 C.ar    1  UNL1        0.0188
     10 C         142.9057  141.2665  163.4051 C.ar    1  UNL1        0.0792
     11 C         140.3145  139.3373  165.5567 C.ar    1  UNL1        0.0342
     12 C         139.7485  139.9570  166.8000 C.ar    1  UNL1        0.0039
     13 C         138.5503  139.3457  167.4639 C.ar    1  UNL1        0.0115
     14 C         137.9183  138.1150  166.8847 C.ar    1  UNL1        0.0577
     15 CL        136.7201  137.5038  167.5488 Cl      1  UNL1       -0.0822
     16 C         138.4843  137.4954  165.6415 C.ar    1  UNL1        0.0115
     17 C         139.6824  138.1065  164.9775 C.ar    1  UNL1        0.0039
     18 C         139.4709  142.5555  163.6992 C.3     1  UNL1        0.0297
     19 C         140.0274  143.2940  164.8804 C.3     1  UNL1        0.0024
     20 C         139.2381  144.4023  165.5118 C.3     1  UNL1        0.0001
     21 C         137.8923  144.7721  164.9620 C.3     1  UNL1        0.0000
     22 C         137.3359  144.0337  163.7809 C.3     1  UNL1        0.0001
     23 C         138.1252  142.9254  163.1495 C.3     1  UNL1        0.0024
     24 N         140.1913  141.5520  160.4727 N.am    1  UNL1       -0.2824
     25 C         139.8220  140.8678  161.7554 C.2     1  UNL1        0.2468
     26 O         139.0156  139.6208  161.5435 O.2     1  UNL1       -0.2727
     27 H         140.7213  142.3815  160.4921 H       1  UNL1        0.1549
     28 C         138.8764  139.8136  156.5358 C.ar    1  UNL1        0.0140
     29 C         137.9774  140.7592  157.2759 C.ar    1  UNL1        0.0024
     30 C         138.4157  141.3387  158.5882 C.ar    1  UNL1        0.0147
     31 C         139.7531  140.9725  159.1605 C.ar    1  UNL1        0.0542
     32 C         140.6521  140.0270  158.4204 C.ar    1  UNL1        0.0849
     33 C         140.2138  139.4475  157.1082 C.ar    1  UNL1        0.0062
     34 C         141.9895  139.6609  158.9927 C.3     1  UNL1        0.4197
     35 F         143.3268  139.2948  159.5649 F       1  UNL1       -0.1658
     36 F         142.5809  140.9099  158.4095 F       1  UNL1       -0.1658
     37 F         141.2393  138.4657  159.5018 F       1  UNL1       -0.1658
     38 O         138.5968  140.0297  153.9619 O.co2   1  UNL1       -0.5446
     39 C         138.4382  139.2341  155.2236 C.2     1  UNL1        0.0729
     40 O         137.8412  137.8589  155.1730 O.co2   1  UNL1       -0.5446
@<TRIPOS>UNITY_ATOM_ATTR
38 1
charge -1
@<TRIPOS>BOND
     1    38    39   ar
     2    39    40   ar
     3    39    28    1
     4    28    29   ar
     5    29    30   ar
     6    30    31   ar
     7    31    24    1
     8    24    25   am
     9    25    26    2
    10    25     1    1
    11     1    18    1
    12    18    19    1
    13    19    20    1
    14    20    21    1
    15    21    22    1
    16    22    23    1
    17     1     2    1
    18     2     3   ar
    19     3    11    1
    20    11    12   ar
    21    12    13   ar
    22    13    14   ar
    23    14    15    1
    24    14    16   ar
    25    16    17   ar
    26     3     4   ar
    27     4     5   ar
    28     5     6   ar
    29     6     7   ar
    30     7     8   ar
    31     8     9   ar
    32     9    10   ar
    33    31    32   ar
    34    32    34    1
    35    34    35    1
    36    34    36    1
    37    34    37    1
    38    32    33   ar
    39    33    28   ar
    40    23    18    1
    41    10     2   ar
    42    17    11   ar
    43    10     5   ar
    44    24    27    1
@<TRIPOS>MOLECULE
*****
 40 44 0 0 0
SMALL
GASTEIGER

@<TRIPOS>ATOM
      1 C         140.4221  141.1213  162.8207 C.3     1  UNL1        0.1631
      2 N         141.6219  140.7281  163.6306 N.ar    1  UNL1       -0.3048
      3 C         141.6102  139.8864  164.8722 C.ar    1  UNL1        0.1441
      4 N         143.0250  139.7457  165.3501 N.ar    1  UNL1       -0.2268
      5 C         143.9111  140.5004  164.4040 C.ar    1  UNL1        0.0987
      6 C         145.3956  140.7132  164.3728 C.ar    1  UNL1        0.0206
      7 C         146.0129  141.5332  163.2789 C.ar    1  UNL1        0.0016
      8 C         145.1457  142.1404  162.2162 C.ar    1  UNL1        0.0016
      9 C         143.6612  141.9276  162.2474 C.ar    1  UNL1        0.0188
     10 C         143.0439  141.1076  163.3413 C.ar    1  UNL1        0.0792
     11 C         140.3967  139.2901  165.5217 C.ar    1  UNL1        0.0342
     12 C         139.7670  138.0568  164.9450 C.ar    1  UNL1        0.0039
     13 C         138.5535  137.4605  165.5945 C.ar    1  UNL1        0.0115
     14 C         137.9697  138.0975  166.8206 C.ar    1  UNL1        0.0577
     15 CL        136.7562  137.5011  167.4701 Cl      1  UNL1       -0.0822
     16 C         138.5994  139.3308  167.3973 C.ar    1  UNL1        0.0115
     17 C         139.8128  139.9271  166.7478 C.ar    1  UNL1        0.0039
     18 C         139.5919  142.3002  163.2338 C.3     1  UNL1        0.0297
     19 C         139.9704  143.0957  164.4479 C.3     1  UNL1        0.0024
     20 C         139.1402  144.2746  164.8611 C.3     1  UNL1        0.0001
     21 C         137.9313  144.6582  164.0601 C.3     1  UNL1        0.0000
     22 C         137.5528  143.8628  162.8460 C.3     1  UNL1        0.0001
     23 C         138.3830  142.6838  162.4328 C.3     1  UNL1        0.0024
     24 N         140.7511  140.6001  160.2967 N.am    1  UNL1       -0.2824
     25 C         140.0526  140.3355  161.5975 C.2     1  UNL1        0.2468
     26 O         139.0157  139.2562  161.4971 O.2     1  UNL1       -0.2727
     27 H         141.4521  141.2895  160.2457 H       1  UNL1        0.1549
     28 C         139.6425  138.2424  156.6275 C.ar    1  UNL1        0.0140
     29 C         140.7210  137.7428  157.5426 C.ar    1  UNL1        0.0024
     30 C         141.0905  138.5287  158.7657 C.ar    1  UNL1        0.0147
     31 C         140.3816  139.8143  159.0737 C.ar    1  UNL1        0.0542
     32 C         139.3031  140.3139  158.1586 C.ar    1  UNL1        0.0849
     33 C         138.9337  139.5280  156.9356 C.ar    1  UNL1        0.0062
     34 C         138.5942  141.5994  158.4666 C.3     1  UNL1        0.4197
     35 F         137.8853  142.8850  158.7745 F       1  UNL1       -0.1658
     36 F         139.6532  142.3609  157.7258 F       1  UNL1       -0.1658
     37 F         137.6296  140.6869  159.1643 F       1  UNL1       -0.1658
     38 O         137.8293  137.2342  155.0638 O.co2   1  UNL1       -0.5446
     39 C         139.2730  137.4566  155.4045 C.2     1  UNL1        0.0729
     40 O         140.3473  136.8932  154.5222 O.co2   1  UNL1       -0.5446
@<TRIPOS>UNITY_ATOM_ATTR
38 1
charge -1
@<TRIPOS>BOND
     1    38    39   ar
     2    39    40   ar
     3    39    28    1
     4    28    29   ar
     5    29    30   ar
     6    30    31   ar
     7    31    24    1
     8    24    25   am
     9    25    26    2
    10    25     1    1
    11     1    18    1
    12    18    19    1
    13    19    20    1
    14    20    21    1
    15    21    22    1
    16    22    23    1
    17     1     2    1
    18     2     3   ar
    19     3    11    1
    20    11    12   ar
    21    12    13   ar
    22    13    14   ar
    23    14    15    1
    24    14    16   ar
    25    16    17   ar
    26     3     4   ar
    27     4     5   ar
    28     5     6   ar
    29     6     7   ar
    30     7     8   ar
    31     8     9   ar
    32     9    10   ar
    33    31    32   ar
    34    32    34    1
    35    34    35    1
    36    34    36    1
    37    34    37    1
    38    32    33   ar
    39    33    28   ar
    40    23    18    1
    41    10     2   ar
    42    17    11   ar
    43    10     5   ar
    44    24    27    1
@<TRIPOS>MOLECULE
*****
 40 44 0 0 0
SMALL
GASTEIGER

@<TRIPOS>ATOM
      1 C         140.5144  141.2290  165.3696 C.3     1  UNL1        0.1631
      2 N         141.4796  141.7193  166.4078 N.ar    1  UNL1       -0.3048
      3 C         142.8670  142.2286  166.1513 C.ar    1  UNL1        0.1441
      4 N         143.4717  142.6105  167.4698 N.ar    1  UNL1       -0.2268
      5 C         142.4580  142.3372  168.5412 C.ar    1  UNL1        0.0987
      6 C         142.4971  142.5187  170.0296 C.ar    1  UNL1        0.0206
      7 C         141.3049  142.1495  170.8617 C.ar    1  UNL1        0.0016
      8 C         140.0737  141.5987  170.2054 C.ar    1  UNL1        0.0016
      9 C         140.0347  141.4171  168.7170 C.ar    1  UNL1        0.0188
     10 C         141.2268  141.7864  167.8849 C.ar    1  UNL1        0.0792
     11 C         143.5327  142.3370  164.8115 C.ar    1  UNL1        0.0342
     12 C         143.6995  143.6794  164.1634 C.ar    1  UNL1        0.0039
     13 C         144.3653  143.7878  162.8236 C.ar    1  UNL1        0.0115
     14 C         144.8641  142.5539  162.1320 C.ar    1  UNL1        0.0577
     15 CL        145.5299  142.6623  160.7921 Cl      1  UNL1       -0.0822
     16 C         144.6973  141.2115  162.7801 C.ar    1  UNL1        0.0115
     17 C         144.0316  141.1030  164.1199 C.ar    1  UNL1        0.0039
     18 C         139.7905  139.9310  165.5719 C.3     1  UNL1        0.0297
     19 C         140.3184  138.6727  164.9488 C.3     1  UNL1        0.0024
     20 C         139.5946  137.3746  165.1511 C.3     1  UNL1        0.0001
     21 C         138.3427  137.3348  165.9765 C.3     1  UNL1        0.0000
     22 C         137.8148  138.5930  166.5996 C.3     1  UNL1        0.0001
     23 C         138.5387  139.8911  166.3973 C.3     1  UNL1        0.0024
     24 N         140.7086  141.5092  162.7939 N.am    1  UNL1       -0.2824
     25 C         140.2731  142.0368  164.1288 C.2     1  UNL1        0.2468
     26 O         139.6151  143.3819  164.0411 O.2     1  UNL1       -0.2727
     27 H         141.1527  140.6327  162.7320 H       1  UNL1        0.1549
     28 C         139.9848  143.9327  159.0719 C.ar    1  UNL1        0.0140
     29 C         141.2126  144.1761  159.8985 C.ar    1  UNL1        0.0024
     30 C         141.4538  143.3683  161.1392 C.ar    1  UNL1        0.0147
     31 C         140.4673  142.3169  161.5532 C.ar    1  UNL1        0.0542
     32 C         139.2395  142.0735  160.7267 C.ar    1  UNL1        0.0849
     33 C         138.9983  142.8813  159.4860 C.ar    1  UNL1        0.0062
     34 C         138.2529  141.0222  161.1407 C.3     1  UNL1        0.4197
     35 F         137.2663  139.9709  161.5548 F       1  UNL1       -0.1658
     36 F         137.5418  142.0271  161.9978 F       1  UNL1       -0.1658
     37 F         139.0790  140.1530  160.2395 F       1  UNL1       -0.1658
     38 O         140.1269  146.1901  157.7938 O.co2   1  UNL1       -0.5446
     39 C         139.7435  144.7405  157.8313 C.2     1  UNL1        0.0729
     40 O         139.1187  144.0985  156.6281 O.co2   1  UNL1       -0.5446
@<TRIPOS>UNITY_ATOM_ATTR
38 1
charge -1
@<TRIPOS>BOND
     1    38    39   ar
     2    39    40   ar
     3    39    28    1
     4    28    29   ar
     5    29    30   ar
     6    30    31   ar
     7    31    24    1
     8    24    25   am
     9    25    26    2
    10    25     1    1
    11     1    18    1
    12    18    19    1
    13    19    20    1
    14    20    21    1
    15    21    22    1
    16    22    23    1
    17     1     2    1
    18     2     3   ar
    19     3    11    1
    20    11    12   ar
    21    12    13   ar
    22    13    14   ar
    23    14    15    1
    24    14    16   ar
    25    16    17   ar
    26     3     4   ar
    27     4     5   ar
    28     5     6   ar
    29     6     7   ar
    30     7     8   ar
    31     8     9   ar
    32     9    10   ar
    33    31    32   ar
    34    32    34    1
    35    34    35    1
    36    34    36    1
    37    34    37    1
    38    32    33   ar
    39    33    28   ar
    40    23    18    1
    41    10     2   ar
    42    17    11   ar
    43    10     5   ar
    44    24    27    1
@<TRIPOS>MOLECULE
*****
 40 44 0 0 0
SMALL
GASTEIGER

@<TRIPOS>ATOM
      1 C         141.9485  141.2542  160.8262 C.3     1  UNL1        0.1631
      2 N         142.0534  140.0210  159.9787 N.ar    1  UNL1       -0.3048
      3 C         141.5386  138.6585  160.3372 C.ar    1  UNL1        0.1441
      4 N         141.8584  137.7292  159.2040 N.ar    1  UNL1       -0.2268
      5 C         142.5709  138.5174  158.1452 C.ar    1  UNL1        0.0987
      6 C         143.1256  138.1284  156.8070 C.ar    1  UNL1        0.0206
      7 C         143.8007  139.1557  155.9475 C.ar    1  UNL1        0.0016
      8 C         143.9212  140.5722  156.4262 C.ar    1  UNL1        0.0016
      9 C         143.3666  140.9612  157.7645 C.ar    1  UNL1        0.0188
     10 C         142.6914  139.9338  158.6240 C.ar    1  UNL1        0.0792
     11 C         140.8285  138.2900  161.6061 C.ar    1  UNL1        0.0342
     12 C         141.5868  137.6503  162.7312 C.ar    1  UNL1        0.0039
     13 C         140.8768  137.2818  164.0001 C.ar    1  UNL1        0.0115
     14 C         139.4086  137.5530  164.1438 C.ar    1  UNL1        0.0577
     15 CL        138.6986  137.1844  165.4128 Cl      1  UNL1       -0.0822
     16 C         138.6503  138.1926  163.0187 C.ar    1  UNL1        0.0115
     17 C         139.3603  138.5611  161.7499 C.ar    1  UNL1        0.0039
     18 C         141.3945  142.5202  160.2430 C.3     1  UNL1        0.0297
     19 C         140.2027  142.4683  159.3336 C.3     1  UNL1        0.0024
     20 C         139.6486  143.7343  158.7504 C.3     1  UNL1        0.0001
     21 C         140.2863  145.0523  159.0766 C.3     1  UNL1        0.0000
     22 C         141.4781  145.1042  159.9859 C.3     1  UNL1        0.0001
     23 C         142.0322  143.8382  160.5692 C.3     1  UNL1        0.0024
     24 N         141.4868  141.7170  163.3408 N.am    1  UNL1       -0.2824
     25 C         142.3978  141.2214  162.2571 C.2     1  UNL1        0.2468
     26 O         143.7155  140.7294  162.7785 O.2     1  UNL1       -0.2727
     27 H         140.5940  142.0638  163.1130 H       1  UNL1        0.1549
     28 C         142.8346  141.6182  167.6331 C.ar    1  UNL1        0.0140
     29 C         141.9691  140.5185  167.0933 C.ar    1  UNL1        0.0024
     30 C         141.5198  140.5514  165.6624 C.ar    1  UNL1        0.0147
     31 C         141.9361  141.6841  164.7715 C.ar    1  UNL1        0.0542
     32 C         142.8016  142.7838  165.3113 C.ar    1  UNL1        0.0849
     33 C         143.2509  142.7509  166.7420 C.ar    1  UNL1        0.0062
     34 C         143.2179  143.9165  164.4204 C.3     1  UNL1        0.4197
     35 F         143.6342  145.0492  163.5294 F       1  UNL1       -0.1658
     36 F         141.8415  144.5038  164.5238 F       1  UNL1       -0.1658
     37 F         144.5333  143.1955  164.4263 F       1  UNL1       -0.1658
     38 O         143.8007  142.8331  169.7165 O.co2   1  UNL1       -0.5446
     39 C         143.2839  141.5854  169.0638 C.2     1  UNL1        0.0729
     40 O         143.2164  140.3047  169.8418 O.co2   1  UNL1       -0.5446
@<TRIPOS>UNITY_ATOM_ATTR
38 1
charge -1
@<TRIPOS>BOND
     1    38    39   ar
     2    39    40   ar
     3    39    28    1
     4    28    29   ar
     5    29    30   ar
     6    30    31   ar
     7    31    24    1
     8    24    25   am
     9    25    26    2
    10    25     1    1
    11     1    18    1
    12    18    19    1
    13    19    20    1
    14    20    21    1
    15    21    22    1
    16    22    23    1
    17     1     2    1
    18     2     3   ar
    19     3    11    1
    20    11    12   ar
    21    12    13   ar
    22    13    14   ar
    23    14    15    1
    24    14    16   ar
    25    16    17   ar
    26     3     4   ar
    27     4     5   ar
    28     5     6   ar
    29     6     7   ar
    30     7     8   ar
    31     8     9   ar
    32     9    10   ar
    33    31    32   ar
    34    32    34    1
    35    34    35    1
    36    34    36    1
    37    34    37    1
    38    32    33   ar
    39    33    28   ar
    40    23    18    1
    41    10     2   ar
    42    17    11   ar
    43    10     5   ar
    44    24    27    1
