@<TRIPOS>MOLECULE
*****
 35 37 0 0 0
SMALL
GASTEIGER

@<TRIPOS>ATOM
      1 N         142.1526  142.2381  167.6096 N.3     1  UNL1       -0.2738
      2 C         140.7145  142.6609  167.6635 C.3     1  UNL1        0.0738
      3 C         140.0467  143.2068  166.4362 C.3     1  UNL1        0.0372
      4 C         140.8171  143.3298  165.1551 C.3     1  UNL1        0.0784
      5 C         142.2553  142.9070  165.1011 C.3     1  UNL1        0.0372
      6 C         142.9230  142.3611  166.3284 C.3     1  UNL1        0.0738
      7 N         140.1493  143.8757  163.9279 N.am    1  UNL1       -0.2761
      8 C         140.8127  144.9612  163.1330 C.2     1  UNL1        0.2413
      9 O         142.1438  145.5008  163.5655 O.2     1  UNL1       -0.2737
     10 C         138.8183  143.3361  163.4954 C.3     1  UNL1        0.1206
     11 C         138.6973  141.9104  163.0451 C.ar    1  UNL1        0.0047
     12 C         138.3878  140.7325  163.9207 C.ar    1  UNL1        0.0049
     13 C         138.3638  139.5064  163.0570 C.ar    1  UNL1        0.0352
     14 S         138.6584  139.9266  161.6475 S.2     1  UNL1       -0.0862
     15 C         138.8645  141.4123  161.6402 C.ar    1  UNL1        0.0328
     16 C         140.1450  145.5071  161.9058 C.3     1  UNL1        0.1901
     17 C         140.8474  145.4505  160.5817 C.1     1  UNL1        0.0830
     18 N         141.5499  145.3939  159.2576 N.1     1  UNL1       -0.1954
     19 C         142.8203  141.6922  168.8368 C.3     1  UNL1        0.0592
     20 C         143.8676  142.5010  169.5435 C.3     1  UNL1        0.0174
     21 C         142.4409  140.3376  169.3574 C.3     1  UNL1        0.0372
     22 C         142.6050  139.1268  168.4874 C.3     1  UNL1        0.0911
     23 C         143.3170  138.5013  166.0683 C.2     1  UNL1        0.2467
     24 O         144.4309  137.6579  166.6141 O.2     1  UNL1       -0.2701
     25 N         142.4041  139.2357  167.0048 N.am    1  UNL1       -0.3008
     26 H         141.6730  139.7893  166.6465 H       1  UNL1        0.1497
     27 C         141.0553  137.0364  164.7494 C.3     1  UNL1        0.0313
     28 C         141.9852  137.8778  163.9263 C.ar    1  UNL1       -0.0140
     29 C         141.7843  137.9867  162.4439 C.ar    1  UNL1        0.0267
     30 C         142.7142  138.8281  161.6208 C.ar    1  UNL1        0.1376
     31 CL        142.5132  138.9370  160.1383 Cl      1  UNL1       -0.0614
     32 N         143.8450  139.5605  162.2802 N.ar    1  UNL1       -0.2381
     33 C         144.0459  139.4516  163.7626 C.ar    1  UNL1        0.0643
     34 C         145.1767  140.1840  164.4221 C.3     1  UNL1        0.0523
     35 C         143.1160  138.6102  164.5857 C.ar    1  UNL1        0.0630
@<TRIPOS>BOND
     1    27    28    1
     2    28    29   ar
     3    29    30   ar
     4    30    31    1
     5    30    32   ar
     6    32    33   ar
     7    33    34    1
     8    33    35   ar
     9    35    23    1
    10    23    24    2
    11    23    25   am
    12    25    22    1
    13    22    21    1
    14    21    19    1
    15    19    20    1
    16    19     1    1
    17     1     2    1
    18     2     3    1
    19     3     4    1
    20     4     7    1
    21     7    10    1
    22    10    11    1
    23    11    12   ar
    24    12    13   ar
    25    13    14   ar
    26    14    15   ar
    27     7     8   am
    28     8     9    2
    29     8    16    1
    30    16    17    1
    31    17    18    3
    32     4     5    1
    33     5     6    1
    34    35    28   ar
    35     6     1    1
    36    15    11   ar
    37    25    26    1
@<TRIPOS>MOLECULE
*****
 35 37 0 0 0
SMALL
GASTEIGER

@<TRIPOS>ATOM
      1 N         141.9344  142.3969  167.5436 N.3     1  UNL1       -0.2738
      2 C         142.7765  142.5154  166.3080 C.3     1  UNL1        0.0738
      3 C         142.1656  143.0034  165.0279 C.3     1  UNL1        0.0372
      4 C         140.7125  143.3729  164.9834 C.3     1  UNL1        0.0784
      5 C         139.8703  143.2545  166.2191 C.3     1  UNL1        0.0372
      6 C         140.4813  142.7664  167.4991 C.3     1  UNL1        0.0738
      7 N         140.1016  143.8610  163.7033 N.am    1  UNL1       -0.2761
      8 C         140.7318  144.9999  162.9579 C.2     1  UNL1        0.2413
      9 O         141.9730  145.6508  163.4925 O.2     1  UNL1       -0.2737
     10 C         138.8604  143.2101  163.1687 C.3     1  UNL1        0.1206
     11 C         138.9692  142.0438  162.2317 C.ar    1  UNL1        0.0047
     12 C         140.2379  141.4993  161.6453 C.ar    1  UNL1        0.0049
     13 C         139.8812  140.3362  160.7678 C.ar    1  UNL1        0.0352
     14 S         138.3920  140.1619  160.8118 S.2     1  UNL1       -0.0862
     15 C         137.8284  141.2173  161.7166 C.ar    1  UNL1        0.0328
     16 C         140.1209  145.4879  161.6778 C.3     1  UNL1        0.1901
     17 C         140.9053  145.4257  160.4008 C.1     1  UNL1        0.0830
     18 N         141.6898  145.3634  159.1238 N.1     1  UNL1       -0.1954
     19 C         142.5453  141.9089  168.8236 C.3     1  UNL1        0.0592
     20 C         142.8129  142.8721  169.9420 C.3     1  UNL1        0.0174
     21 C         142.8887  140.4578  168.9854 C.3     1  UNL1        0.0372
     22 C         142.0986  139.4140  168.2531 C.3     1  UNL1        0.0911
     23 C         143.0957  138.6134  165.9915 C.2     1  UNL1        0.2467
     24 O         144.1395  137.8287  166.7294 O.2     1  UNL1       -0.2701
     25 N         142.0753  139.4061  166.7533 N.am    1  UNL1       -0.3008
     26 H         141.3902  139.9211  166.2689 H       1  UNL1        0.1497
     27 C         145.1234  140.1997  164.4512 C.3     1  UNL1        0.0313
     28 C         144.0862  139.3986  163.7215 C.ar    1  UNL1       -0.0140
     29 C         144.0628  139.3906  162.2218 C.ar    1  UNL1        0.0267
     30 C         143.0256  138.5895  161.4921 C.ar    1  UNL1        0.1376
     31 CL        143.0022  138.5816  159.9922 Cl      1  UNL1       -0.0614
     32 N         142.0117  137.7964  162.2622 N.ar    1  UNL1       -0.2381
     33 C         142.0351  137.8044  163.7619 C.ar    1  UNL1        0.0643
     34 C         141.0213  137.0112  164.5321 C.3     1  UNL1        0.0523
     35 C         143.0724  138.6055  164.4916 C.ar    1  UNL1        0.0630
@<TRIPOS>BOND
     1    27    28    1
     2    28    29   ar
     3    29    30   ar
     4    30    31    1
     5    30    32   ar
     6    32    33   ar
     7    33    34    1
     8    33    35   ar
     9    35    23    1
    10    23    24    2
    11    23    25   am
    12    25    22    1
    13    22    21    1
    14    21    19    1
    15    19    20    1
    16    19     1    1
    17     1     2    1
    18     2     3    1
    19     3     4    1
    20     4     7    1
    21     7    10    1
    22    10    11    1
    23    11    12   ar
    24    12    13   ar
    25    13    14   ar
    26    14    15   ar
    27     7     8   am
    28     8     9    2
    29     8    16    1
    30    16    17    1
    31    17    18    3
    32     4     5    1
    33     5     6    1
    34    35    28   ar
    35     6     1    1
    36    15    11   ar
    37    25    26    1
@<TRIPOS>MOLECULE
*****
 35 37 0 0 0
SMALL
GASTEIGER

@<TRIPOS>ATOM
      1 N         139.1873  142.0476  160.0152 N.3     1  UNL1       -0.2738
      2 C         140.2890  141.0351  160.1201 C.3     1  UNL1        0.0738
      3 C         140.4086  140.1812  161.3475 C.3     1  UNL1        0.0372
      4 C         139.4263  140.3397  162.4700 C.3     1  UNL1        0.0784
      5 C         138.3245  141.3522  162.3651 C.3     1  UNL1        0.0372
      6 C         138.2050  142.2061  161.1378 C.3     1  UNL1        0.0738
      7 N         139.5459  139.4857  163.6974 N.am    1  UNL1       -0.2761
      8 C         138.8609  138.1523  163.7530 C.2     1  UNL1        0.2413
      9 O         138.0564  137.6730  162.5812 O.2     1  UNL1       -0.2737
     10 C         140.3503  139.9650  164.8691 C.3     1  UNL1        0.1206
     11 C         141.7922  139.5727  164.9998 C.ar    1  UNL1        0.0047
     12 C         142.4011  138.8216  166.1466 C.ar    1  UNL1        0.0049
     13 C         143.8635  138.6472  165.8623 C.ar    1  UNL1        0.0352
     14 S         144.1585  139.2905  164.5397 S.2     1  UNL1       -0.0862
     15 C         142.8783  139.8625  164.0067 C.ar    1  UNL1        0.0328
     16 C         138.9804  137.2984  164.9803 C.3     1  UNL1        0.1901
     17 C         138.0523  137.5156  166.1385 C.1     1  UNL1        0.0830
     18 N         137.1241  137.7329  167.2966 N.1     1  UNL1       -0.1954
     19 C         139.0678  142.9016  158.7878 C.3     1  UNL1        0.0592
     20 C         138.0316  142.5835  157.7508 C.3     1  UNL1        0.0174
     21 C         139.9843  144.0735  158.5974 C.3     1  UNL1        0.0372
     22 C         140.4067  144.8951  159.7792 C.3     1  UNL1        0.0911
     23 C         140.9327  144.9347  162.3232 C.2     1  UNL1        0.2467
     24 O         140.3647  146.3197  162.4191 O.2     1  UNL1       -0.2701
     25 N         140.9537  144.2224  161.0033 N.am    1  UNL1       -0.3008
     26 H         141.3265  143.3134  160.9404 H       1  UNL1        0.1497
     27 C         143.8856  144.4778  162.5908 C.3     1  UNL1        0.0313
     28 C         142.9561  144.0336  163.6811 C.ar    1  UNL1       -0.0140
     29 C         143.5030  143.3609  164.9051 C.ar    1  UNL1        0.0267
     30 C         142.5736  142.9167  165.9954 C.ar    1  UNL1        0.1376
     31 CL        143.1206  142.2440  167.2195 Cl      1  UNL1       -0.0614
     32 N         141.0971  143.1451  165.8616 N.ar    1  UNL1       -0.2381
     33 C         140.5502  143.8178  164.6376 C.ar    1  UNL1        0.0643
     34 C         139.0737  144.0462  164.5038 C.3     1  UNL1        0.0523
     35 C         141.4797  144.2620  163.5473 C.ar    1  UNL1        0.0630
@<TRIPOS>BOND
     1    27    28    1
     2    28    29   ar
     3    29    30   ar
     4    30    31    1
     5    30    32   ar
     6    32    33   ar
     7    33    34    1
     8    33    35   ar
     9    35    23    1
    10    23    24    2
    11    23    25   am
    12    25    22    1
    13    22    21    1
    14    21    19    1
    15    19    20    1
    16    19     1    1
    17     1     2    1
    18     2     3    1
    19     3     4    1
    20     4     7    1
    21     7    10    1
    22    10    11    1
    23    11    12   ar
    24    12    13   ar
    25    13    14   ar
    26    14    15   ar
    27     7     8   am
    28     8     9    2
    29     8    16    1
    30    16    17    1
    31    17    18    3
    32     4     5    1
    33     5     6    1
    34    35    28   ar
    35     6     1    1
    36    15    11   ar
    37    25    26    1
@<TRIPOS>MOLECULE
*****
 35 37 0 0 0
SMALL
GASTEIGER

@<TRIPOS>ATOM
      1 N         142.7330  138.5964  158.7188 N.3     1  UNL1       -0.2738
      2 C         142.8441  140.0253  159.1611 C.3     1  UNL1        0.0738
      3 C         143.2159  140.3448  160.5788 C.3     1  UNL1        0.0372
      4 C         143.4765  139.2354  161.5541 C.3     1  UNL1        0.0784
      5 C         143.3654  137.8064  161.1117 C.3     1  UNL1        0.0372
      6 C         142.9936  137.4869  159.6941 C.3     1  UNL1        0.0738
      7 N         143.8482  139.5549  162.9717 N.am    1  UNL1       -0.2761
      8 C         143.1548  138.8575  164.1043 C.2     1  UNL1        0.2413
      9 O         142.0896  137.8406  163.8193 O.2     1  UNL1       -0.2737
     10 C         144.9134  140.5719  163.2567 C.3     1  UNL1        0.1206
     11 C         144.5448  142.0154  163.4311 C.ar    1  UNL1        0.0047
     12 C         144.1293  142.6704  164.7150 C.ar    1  UNL1        0.0049
     13 C         143.8547  144.1172  164.4296 C.ar    1  UNL1        0.0352
     14 S         144.1004  144.3563  162.9693 S.2     1  UNL1       -0.0862
     15 C         144.5269  143.0573  162.3522 C.ar    1  UNL1        0.0328
     16 C         143.5265  139.1770  165.5220 C.3     1  UNL1        0.1901
     17 C         144.0834  138.1050  166.4111 C.1     1  UNL1        0.0830
     18 N         144.6402  137.0330  167.3003 N.1     1  UNL1       -0.1954
     19 C         142.3612  138.2768  157.3011 C.3     1  UNL1        0.0592
     20 C         143.3887  137.7120  156.3654 C.3     1  UNL1        0.0174
     21 C         140.9621  138.5221  156.8192 C.3     1  UNL1        0.0372
     22 C         139.7996  138.2759  157.7345 C.3     1  UNL1        0.0911
     23 C         138.4401  140.0981  158.9919 C.2     1  UNL1        0.2467
     24 O         137.4854  140.1821  157.8380 O.2     1  UNL1       -0.2701
     25 N         139.5971  139.1450  158.9402 N.am    1  UNL1       -0.3008
     26 H         140.2237  139.0899  159.6976 H       1  UNL1        0.1497
     27 C         137.4597  138.8963  161.5600 C.3     1  UNL1        0.0313
     28 C         137.7474  140.3663  161.4816 C.ar    1  UNL1       -0.0140
     29 C         137.5450  141.2355  162.6872 C.ar    1  UNL1        0.0267
     30 C         137.8327  142.7055  162.6089 C.ar    1  UNL1        0.1376
     31 CL        137.6302  143.5747  163.8146 Cl      1  UNL1       -0.0614
     32 N         138.3228  143.3065  161.3249 N.ar    1  UNL1       -0.2381
     33 C         138.5253  142.4373  160.1193 C.ar    1  UNL1        0.0643
     34 C         139.0154  143.0383  158.8353 C.3     1  UNL1        0.0523
     35 C         138.2376  140.9673  160.1977 C.ar    1  UNL1        0.0630
@<TRIPOS>BOND
     1    27    28    1
     2    28    29   ar
     3    29    30   ar
     4    30    31    1
     5    30    32   ar
     6    32    33   ar
     7    33    34    1
     8    33    35   ar
     9    35    23    1
    10    23    24    2
    11    23    25   am
    12    25    22    1
    13    22    21    1
    14    21    19    1
    15    19    20    1
    16    19     1    1
    17     1     2    1
    18     2     3    1
    19     3     4    1
    20     4     7    1
    21     7    10    1
    22    10    11    1
    23    11    12   ar
    24    12    13   ar
    25    13    14   ar
    26    14    15   ar
    27     7     8   am
    28     8     9    2
    29     8    16    1
    30    16    17    1
    31    17    18    3
    32     4     5    1
    33     5     6    1
    34    35    28   ar
    35     6     1    1
    36    15    11   ar
    37    25    26    1
@<TRIPOS>MOLECULE
*****
 35 37 0 0 0
SMALL
GASTEIGER

@<TRIPOS>ATOM
      1 N         139.3972  140.5251  163.7427 N.3     1  UNL1       -0.2738
      2 C         139.2754  141.8200  164.4900 C.3     1  UNL1        0.0738
      3 C         140.2721  142.1677  165.5556 C.3     1  UNL1        0.0372
      4 C         141.3907  141.2204  165.8741 C.3     1  UNL1        0.0784
      5 C         141.5126  139.9255  165.1269 C.3     1  UNL1        0.0372
      6 C         140.5159  139.5778  164.0612 C.3     1  UNL1        0.0738
      7 N         142.3874  141.5681  166.9398 N.am    1  UNL1       -0.2761
      8 C         142.2355  141.0042  168.3215 C.2     1  UNL1        0.2413
      9 O         141.0870  140.0927  168.6374 O.2     1  UNL1       -0.2737
     10 C         143.5360  142.4796  166.6238 C.3     1  UNL1        0.1206
     11 C         143.9595  142.6866  165.1998 C.ar    1  UNL1        0.0047
     12 C         143.5917  143.8529  164.3312 C.ar    1  UNL1        0.0049
     13 C         144.2300  143.6507  162.9889 C.ar    1  UNL1        0.0352
     14 S         144.9924  142.3595  163.0280 S.2     1  UNL1       -0.0862
     15 C         144.8252  141.7637  164.3944 C.ar    1  UNL1        0.0328
     16 C         143.2323  141.3519  169.3871 C.3     1  UNL1        0.1901
     17 C         143.0825  142.6238  170.1680 C.1     1  UNL1        0.0830
     18 N         142.9327  143.8957  170.9488 N.1     1  UNL1       -0.1954
     19 C         138.4005  140.1775  162.6771 C.3     1  UNL1        0.0592
     20 C         137.6599  141.2664  161.9589 C.3     1  UNL1        0.0174
     21 C         138.1444  138.7410  162.3296 C.3     1  UNL1        0.0372
     22 C         138.8150  138.1269  161.1367 C.3     1  UNL1        0.0911
     23 C         141.2778  138.6208  160.4728 C.2     1  UNL1        0.2467
     24 O         141.7439  137.5285  161.3891 O.2     1  UNL1       -0.2701
     25 N         139.8134  138.9200  160.3466 N.am    1  UNL1       -0.3008
     26 H         139.5075  139.6369  159.7452 H       1  UNL1        0.1497
     27 C         141.8927  141.4536  161.2455 C.3     1  UNL1        0.0313
     28 C         142.5836  140.8303  160.0691 C.ar    1  UNL1       -0.0140
     29 C         143.5820  141.6234  159.2790 C.ar    1  UNL1        0.0267
     30 C         144.2730  141.0001  158.1025 C.ar    1  UNL1        0.1376
     31 CL        145.2714  141.7932  157.3124 Cl      1  UNL1       -0.0614
     32 N         143.9655  139.5837  157.7161 N.ar    1  UNL1       -0.2381
     33 C         142.9672  138.7906  158.5062 C.ar    1  UNL1        0.0643
     34 C         142.6597  137.3742  158.1199 C.3     1  UNL1        0.0523
     35 C         142.2762  139.4139  159.6827 C.ar    1  UNL1        0.0630
@<TRIPOS>BOND
     1    27    28    1
     2    28    29   ar
     3    29    30   ar
     4    30    31    1
     5    30    32   ar
     6    32    33   ar
     7    33    34    1
     8    33    35   ar
     9    35    23    1
    10    23    24    2
    11    23    25   am
    12    25    22    1
    13    22    21    1
    14    21    19    1
    15    19    20    1
    16    19     1    1
    17     1     2    1
    18     2     3    1
    19     3     4    1
    20     4     7    1
    21     7    10    1
    22    10    11    1
    23    11    12   ar
    24    12    13   ar
    25    13    14   ar
    26    14    15   ar
    27     7     8   am
    28     8     9    2
    29     8    16    1
    30    16    17    1
    31    17    18    3
    32     4     5    1
    33     5     6    1
    34    35    28   ar
    35     6     1    1
    36    15    11   ar
    37    25    26    1
@<TRIPOS>MOLECULE
*****
 35 37 0 0 0
SMALL
GASTEIGER

@<TRIPOS>ATOM
      1 N         142.1546  140.3680  161.7634 N.3     1  UNL1       -0.2738
      2 C         143.0203  141.5839  161.9115 C.3     1  UNL1        0.0738
      3 C         142.5346  142.9150  161.4194 C.3     1  UNL1        0.0372
      4 C         141.1830  143.0301  160.7791 C.3     1  UNL1        0.0784
      5 C         140.3172  141.8142  160.6309 C.3     1  UNL1        0.0372
      6 C         140.8030  140.4831  161.1230 C.3     1  UNL1        0.0738
      7 N         140.6972  144.3612  160.2869 N.am    1  UNL1       -0.2761
      8 C         140.7976  144.7044  158.8301 C.2     1  UNL1        0.2413
      9 O         141.3836  143.7165  157.8655 O.2     1  UNL1       -0.2737
     10 C         140.1111  145.3492  161.2515 C.3     1  UNL1        0.1206
     11 C         139.5474  144.8770  162.5588 C.ar    1  UNL1        0.0047
     12 C         138.1415  144.4107  162.7958 C.ar    1  UNL1        0.0049
     13 C         138.0157  144.0337  164.2422 C.ar    1  UNL1        0.0352
     14 S         139.3438  144.2670  164.8992 S.2     1  UNL1       -0.0862
     15 C         140.2904  144.7882  163.8588 C.ar    1  UNL1        0.0328
     16 C         140.3118  146.0355  158.3379 C.3     1  UNL1        0.1901
     17 C         139.9450  146.2130  156.8944 C.1     1  UNL1        0.0830
     18 N         139.5781  146.3906  155.4508 N.1     1  UNL1       -0.1954
     19 C         142.6404  139.0369  162.2555 C.3     1  UNL1        0.0592
     20 C         143.9478  138.9383  162.9843 C.3     1  UNL1        0.0174
     21 C         141.8188  137.8044  162.0190 C.3     1  UNL1        0.0372
     22 C         140.7339  137.4295  162.9846 C.3     1  UNL1        0.0911
     23 C         139.7297  139.0838  164.7181 C.2     1  UNL1        0.2467
     24 O         138.7479  139.5643  163.6908 O.2     1  UNL1       -0.2701
     25 N         140.7227  138.0165  164.3650 N.am    1  UNL1       -0.3008
     26 H         141.3671  137.7012  165.0392 H       1  UNL1        0.1497
     27 C         141.6504  141.2751  165.4320 C.3     1  UNL1        0.0313
     28 C         140.6789  140.7664  166.4554 C.ar    1  UNL1       -0.0140
     29 C         140.6676  141.3533  167.8357 C.ar    1  UNL1        0.0267
     30 C         139.6961  140.8447  168.8591 C.ar    1  UNL1        0.1376
     31 CL        139.6849  141.4317  170.2395 Cl      1  UNL1       -0.0614
     32 N         138.7358  139.7491  168.5022 N.ar    1  UNL1       -0.2381
     33 C         138.7470  139.1622  167.1219 C.ar    1  UNL1        0.0643
     34 C         137.7866  138.0665  166.7649 C.3     1  UNL1        0.0523
     35 C         139.7185  139.6708  166.0985 C.ar    1  UNL1        0.0630
@<TRIPOS>BOND
     1    27    28    1
     2    28    29   ar
     3    29    30   ar
     4    30    31    1
     5    30    32   ar
     6    32    33   ar
     7    33    34    1
     8    33    35   ar
     9    35    23    1
    10    23    24    2
    11    23    25   am
    12    25    22    1
    13    22    21    1
    14    21    19    1
    15    19    20    1
    16    19     1    1
    17     1     2    1
    18     2     3    1
    19     3     4    1
    20     4     7    1
    21     7    10    1
    22    10    11    1
    23    11    12   ar
    24    12    13   ar
    25    13    14   ar
    26    14    15   ar
    27     7     8   am
    28     8     9    2
    29     8    16    1
    30    16    17    1
    31    17    18    3
    32     4     5    1
    33     5     6    1
    34    35    28   ar
    35     6     1    1
    36    15    11   ar
    37    25    26    1
@<TRIPOS>MOLECULE
*****
 35 37 0 0 0
SMALL
GASTEIGER

@<TRIPOS>ATOM
      1 N         140.6565  138.7581  159.7479 N.3     1  UNL1       -0.2738
      2 C         141.4599  139.6095  160.6858 C.3     1  UNL1        0.0738
      3 C         140.8942  139.9939  162.0208 C.3     1  UNL1        0.0372
      4 C         139.5252  139.5268  162.4179 C.3     1  UNL1        0.0784
      5 C         138.7218  138.6753  161.4800 C.3     1  UNL1        0.0372
      6 C         139.2875  138.2910  160.1450 C.3     1  UNL1        0.0738
      7 N         138.9596  139.9112  163.7530 N.am    1  UNL1       -0.2761
      8 C         139.2903  139.0985  164.9697 C.2     1  UNL1        0.2413
      9 O         140.1865  137.9016  164.8514 O.2     1  UNL1       -0.2737
     10 C         138.0633  141.1081  163.8713 C.3     1  UNL1        0.1206
     11 C         138.6459  142.4525  164.1922 C.ar    1  UNL1        0.0047
     12 C         137.8704  143.6947  164.5174 C.ar    1  UNL1        0.0049
     13 C         138.8515  144.8008  164.7704 C.ar    1  UNL1        0.0352
     14 S         140.2334  144.2423  164.6015 S.2     1  UNL1       -0.0862
     15 C         140.1063  142.7910  164.2442 C.ar    1  UNL1        0.0328
     16 C         138.7246  139.4829  166.3047 C.3     1  UNL1        0.1901
     17 C         137.7438  138.5797  166.9919 C.1     1  UNL1        0.0830
     18 N         136.7630  137.6765  167.6790 N.1     1  UNL1       -0.1954
     19 C         141.2222  138.3737  158.4129 C.3     1  UNL1        0.0592
     20 C         142.7056  138.2350  158.2386 C.3     1  UNL1        0.0174
     21 C         140.3045  138.1281  157.2521 C.3     1  UNL1        0.0372
     22 C         140.8063  137.4001  156.0404 C.3     1  UNL1        0.0911
     23 C         142.2364  135.2653  155.6568 C.2     1  UNL1        0.2467
     24 O         143.3918  136.1174  155.2220 O.2     1  UNL1       -0.2701
     25 N         140.9437  135.9066  156.0660 N.am    1  UNL1       -0.3008
     26 H         140.1854  135.3473  156.3514 H       1  UNL1        0.1497
     27 C         141.1978  133.6238  153.3706 C.3     1  UNL1        0.0313
     28 C         141.8546  132.9510  154.5394 C.ar    1  UNL1       -0.0140
     29 C         141.9920  131.4576  154.5651 C.ar    1  UNL1        0.0267
     30 C         142.6488  130.7849  155.7339 C.ar    1  UNL1        0.1376
     31 CL        142.7862  129.2913  155.7596 Cl      1  UNL1       -0.0614
     32 N         143.1681  131.6056  156.8770 N.ar    1  UNL1       -0.2381
     33 C         143.0306  133.0990  156.8513 C.ar    1  UNL1        0.0643
     34 C         143.5500  133.9198  157.9944 C.3     1  UNL1        0.0523
     35 C         142.3739  133.7717  155.6825 C.ar    1  UNL1        0.0630
@<TRIPOS>BOND
     1    27    28    1
     2    28    29   ar
     3    29    30   ar
     4    30    31    1
     5    30    32   ar
     6    32    33   ar
     7    33    34    1
     8    33    35   ar
     9    35    23    1
    10    23    24    2
    11    23    25   am
    12    25    22    1
    13    22    21    1
    14    21    19    1
    15    19    20    1
    16    19     1    1
    17     1     2    1
    18     2     3    1
    19     3     4    1
    20     4     7    1
    21     7    10    1
    22    10    11    1
    23    11    12   ar
    24    12    13   ar
    25    13    14   ar
    26    14    15   ar
    27     7     8   am
    28     8     9    2
    29     8    16    1
    30    16    17    1
    31    17    18    3
    32     4     5    1
    33     5     6    1
    34    35    28   ar
    35     6     1    1
    36    15    11   ar
    37    25    26    1
@<TRIPOS>MOLECULE
*****
 35 37 0 0 0
SMALL
GASTEIGER

@<TRIPOS>ATOM
      1 N         143.7891  143.0980  162.2005 N.3     1  UNL1       -0.2738
      2 C         142.4537  143.7808  162.2168 C.3     1  UNL1        0.0738
      3 C         141.7092  144.0030  160.9337 C.3     1  UNL1        0.0372
      4 C         142.3002  143.5422  159.6343 C.3     1  UNL1        0.0784
      5 C         143.6357  142.8593  159.6180 C.3     1  UNL1        0.0372
      6 C         144.3801  142.6372  160.9011 C.3     1  UNL1        0.0738
      7 N         141.5557  143.7643  158.3511 N.am    1  UNL1       -0.2761
      8 C         141.6434  145.0890  157.6528 C.2     1  UNL1        0.2413
      9 O         142.4756  146.1915  158.2376 O.2     1  UNL1       -0.2737
     10 C         140.7235  142.6618  157.7664 C.3     1  UNL1        0.1206
     11 C         139.9891  141.7164  158.6701 C.ar    1  UNL1        0.0047
     12 C         140.4215  140.3260  159.0303 C.ar    1  UNL1        0.0049
     13 C         139.3930  139.7456  159.9552 C.ar    1  UNL1        0.0352
     14 S         138.3249  140.7773  160.1666 S.2     1  UNL1       -0.0862
     15 C         138.6933  141.9953  159.3724 C.ar    1  UNL1        0.0328
     16 C         140.8989  145.3111  156.3697 C.3     1  UNL1        0.1901
     17 C         139.9274  146.4480  156.2534 C.1     1  UNL1        0.0830
     18 N         138.9559  147.5849  156.1371 N.1     1  UNL1       -0.1954
     19 C         144.5336  142.8759  163.4836 C.3     1  UNL1        0.0592
     20 C         144.3136  143.7964  164.6474 C.3     1  UNL1        0.0174
     21 C         145.4981  141.7333  163.6030 C.3     1  UNL1        0.0372
     22 C         144.9891  140.3228  163.6389 C.3     1  UNL1        0.0911
     23 C         142.4254  139.9203  163.7628 C.2     1  UNL1        0.2467
     24 O         142.3122  140.1881  162.2913 O.2     1  UNL1       -0.2701
     25 N         143.7638  139.9877  164.4366 N.am    1  UNL1       -0.3008
     26 H         143.8381  139.8119  165.4025 H       1  UNL1        0.1497
     27 C         141.2157  137.1814  163.5749 C.3     1  UNL1        0.0313
     28 C         140.5953  138.2157  164.4666 C.ar    1  UNL1       -0.0140
     29 C         139.3700  137.8807  165.2643 C.ar    1  UNL1        0.0267
     30 C         138.7496  138.9150  166.1561 C.ar    1  UNL1        0.1376
     31 CL        137.5242  138.5798  166.9538 Cl      1  UNL1       -0.0614
     32 N         139.3543  140.2844  166.2501 N.ar    1  UNL1       -0.2381
     33 C         140.5796  140.6195  165.4523 C.ar    1  UNL1        0.0643
     34 C         141.1844  141.9890  165.5463 C.3     1  UNL1        0.0523
     35 C         141.2001  139.5852  164.5606 C.ar    1  UNL1        0.0630
@<TRIPOS>BOND
     1    27    28    1
     2    28    29   ar
     3    29    30   ar
     4    30    31    1
     5    30    32   ar
     6    32    33   ar
     7    33    34    1
     8    33    35   ar
     9    35    23    1
    10    23    24    2
    11    23    25   am
    12    25    22    1
    13    22    21    1
    14    21    19    1
    15    19    20    1
    16    19     1    1
    17     1     2    1
    18     2     3    1
    19     3     4    1
    20     4     7    1
    21     7    10    1
    22    10    11    1
    23    11    12   ar
    24    12    13   ar
    25    13    14   ar
    26    14    15   ar
    27     7     8   am
    28     8     9    2
    29     8    16    1
    30    16    17    1
    31    17    18    3
    32     4     5    1
    33     5     6    1
    34    35    28   ar
    35     6     1    1
    36    15    11   ar
    37    25    26    1
@<TRIPOS>MOLECULE
*****
 35 37 0 0 0
SMALL
GASTEIGER

@<TRIPOS>ATOM
      1 N         140.3330  140.1951  160.5709 N.3     1  UNL1       -0.2738
      2 C         139.0238  140.9066  160.3984 C.3     1  UNL1        0.0738
      3 C         139.0029  142.3539  160.0050 C.3     1  UNL1        0.0372
      4 C         140.2912  143.0898  159.7842 C.3     1  UNL1        0.0784
      5 C         141.6005  142.3783  159.9568 C.3     1  UNL1        0.0372
      6 C         141.6213  140.9309  160.3502 C.3     1  UNL1        0.0738
      7 N         140.2704  144.5371  159.3909 N.am    1  UNL1       -0.2761
      8 C         140.1044  144.9204  157.9501 C.2     1  UNL1        0.2413
      9 O         139.9592  143.8564  156.9029 O.2     1  UNL1       -0.2737
     10 C         140.4155  145.6011  160.4381 C.3     1  UNL1        0.1206
     11 C         140.3176  145.2416  161.8911 C.ar    1  UNL1        0.0047
     12 C         141.4701  144.9641  162.8103 C.ar    1  UNL1        0.0049
     13 C         140.9149  144.6475  164.1673 C.ar    1  UNL1        0.0352
     14 S         139.4193  144.7295  164.0869 S.2     1  UNL1       -0.0862
     15 C         139.0502  145.0967  162.6801 C.ar    1  UNL1        0.0328
     16 C         140.0835  146.3678  157.5568 C.3     1  UNL1        0.1901
     17 C         139.4801  146.7804  156.2470 C.1     1  UNL1        0.0830
     18 N         138.8767  147.1930  154.9372 N.1     1  UNL1       -0.1954
     19 C         140.3538  138.7477  160.9643 C.3     1  UNL1        0.0592
     20 C         141.6630  138.0475  161.1786 C.3     1  UNL1        0.0174
     21 C         139.0656  138.0005  161.1434 C.3     1  UNL1        0.0372
     22 C         138.4035  137.9589  162.4887 C.3     1  UNL1        0.0911
     23 C         139.7389  138.6923  164.5933 C.2     1  UNL1        0.2467
     24 O         140.4103  137.3516  164.6345 O.2     1  UNL1       -0.2701
     25 N         138.7355  138.9960  163.5204 N.am    1  UNL1       -0.3008
     26 H         138.2949  139.8760  163.4934 H       1  UNL1        0.1497
     27 C         141.9866  140.6203  164.1129 C.3     1  UNL1        0.0313
     28 C         141.1947  140.6933  165.3848 C.ar    1  UNL1       -0.0140
     29 C         141.5267  141.7303  166.4165 C.ar    1  UNL1        0.0267
     30 C         140.7348  141.8033  167.6883 C.ar    1  UNL1        0.1376
     31 CL        141.0668  142.8404  168.7201 Cl      1  UNL1       -0.0614
     32 N         139.6110  140.8393  167.9285 N.ar    1  UNL1       -0.2381
     33 C         139.2790  139.8024  166.8968 C.ar    1  UNL1        0.0643
     34 C         138.1552  138.8383  167.1370 C.3     1  UNL1        0.0523
     35 C         140.0709  139.7294  165.6250 C.ar    1  UNL1        0.0630
@<TRIPOS>BOND
     1    27    28    1
     2    28    29   ar
     3    29    30   ar
     4    30    31    1
     5    30    32   ar
     6    32    33   ar
     7    33    34    1
     8    33    35   ar
     9    35    23    1
    10    23    24    2
    11    23    25   am
    12    25    22    1
    13    22    21    1
    14    21    19    1
    15    19    20    1
    16    19     1    1
    17     1     2    1
    18     2     3    1
    19     3     4    1
    20     4     7    1
    21     7    10    1
    22    10    11    1
    23    11    12   ar
    24    12    13   ar
    25    13    14   ar
    26    14    15   ar
    27     7     8   am
    28     8     9    2
    29     8    16    1
    30    16    17    1
    31    17    18    3
    32     4     5    1
    33     5     6    1
    34    35    28   ar
    35     6     1    1
    36    15    11   ar
    37    25    26    1
