@<TRIPOS>MOLECULE
*****
 35 38 0 0 0
SMALL
GASTEIGER

@<TRIPOS>ATOM
      1 C         140.7295  144.2325  161.7763 C.ar    1  UNL1        0.1377
      2 C         140.3188  143.5385  160.5115 C.ar    1  UNL1        0.1397
      3 N         141.3615  143.0721  159.5394 N.ar    1  UNL1       -0.2027
      4 C         142.8150  143.2996  159.8321 C.ar    1  UNL1        0.2367
      5 N         143.2257  143.9935  161.0969 N.ar    1  UNL1       -0.1828
      6 C         142.1829  144.4600  162.0691 C.ar    1  UNL1        0.2339
      7 C         138.8147  144.9024  165.1874 C.3     1  UNL1        0.1109
      8 N         139.8575  144.4359  164.2153 N.am    1  UNL1       -0.2990
      9 C         139.6867  144.6989  162.7484 C.2     1  UNL1        0.2532
     10 O         138.4730  145.4285  162.2537 O.2     1  UNL1       -0.2699
     11 H         140.6541  143.9571  164.5400 H       1  UNL1        0.1498
     12 N         138.8653  143.3110  160.2188 N.pl3   1  UNL1       -0.3178
     13 H         138.2743  144.0768  160.0356 H       1  UNL1        0.1482
     14 C         138.3123  141.9168  160.2051 C.3     1  UNL1        0.0881
     15 C         138.3669  141.0761  161.4462 C.3     1  UNL1        0.0196
     16 C         137.9485  141.6567  162.7645 C.3     1  UNL1        0.0017
     17 C         138.0032  140.8159  164.0055 C.3     1  UNL1        0.0001
     18 C         138.4762  139.3946  163.9283 C.3     1  UNL1        0.0000
     19 C         138.9246  137.9653  164.0059 C.3     1  UNL1        0.0000
     20 C         138.8175  137.5229  165.4352 C.3     1  UNL1        0.0000
     21 C         138.3029  138.6788  166.2409 C.3     1  UNL1        0.0000
     22 C         138.0919  139.8355  165.3095 C.3     1  UNL1        0.0000
     23 C         138.8946  138.8140  162.6100 C.3     1  UNL1        0.0001
     24 C         138.8399  139.6547  161.3690 C.3     1  UNL1        0.0017
     25 C         143.8579  142.8331  158.8600 C.1     1  UNL1        0.1401
     26 N         144.9007  142.3667  157.8880 N.1     1  UNL1       -0.1876
     27 O         142.5936  145.1539  163.3339 O.3     1  UNL1       -0.4600
     28 C         143.7095  144.5964  164.1668 C.3     1  UNL1        0.2071
     29 C         143.7383  143.1342  164.5002 C.3     1  UNL1        0.0466
     30 C         142.6740  142.5438  165.3769 C.3     1  UNL1        0.0211
     31 C         142.7027  141.0815  165.7102 C.3     1  UNL1        0.0723
     32 N         143.7958  140.2098  165.1669 N.3     1  UNL1       -0.2715
     33 C         143.8246  138.7476  165.5003 C.3     1  UNL1        0.0896
     34 C         144.8602  140.8002  164.2902 C.3     1  UNL1        0.0723
     35 C         144.8314  142.2624  163.9569 C.3     1  UNL1        0.0211
@<TRIPOS>BOND
     1     7     8    1
     2     8     9   am
     3     9    10    2
     4     9     1    1
     5     1     2   ar
     6     2    12    1
     7    12    14    1
     8    14    15    1
     9    15    16    1
    10    16    17    1
    11    17    18    1
    12    18    19    1
    13    19    20    1
    14    20    21    1
    15    21    22    1
    16    18    23    1
    17    23    24    1
    18     2     3   ar
    19     3     4   ar
    20     4    25    1
    21    25    26    3
    22     4     5   ar
    23     5     6   ar
    24     6    27    1
    25    27    28    1
    26    28    29    1
    27    29    30    1
    28    30    31    1
    29    31    32    1
    30    32    33    1
    31    32    34    1
    32    34    35    1
    33     6     1   ar
    34    35    29    1
    35    24    15    1
    36    22    18    1
    37     8    11    1
    38    12    13    1
@<TRIPOS>MOLECULE
*****
 35 38 0 0 0
SMALL
GASTEIGER

@<TRIPOS>ATOM
      1 C         143.2051  138.6565  164.5561 C.ar    1  UNL1        0.1377
      2 C         142.0683  137.9122  163.9207 C.ar    1  UNL1        0.1397
      3 N         142.0052  137.7710  162.4287 N.ar    1  UNL1       -0.2027
      4 C         143.0788  138.3741  161.5722 C.ar    1  UNL1        0.2367
      5 N         144.2155  139.1184  162.2076 N.ar    1  UNL1       -0.1828
      6 C         144.2787  139.2596  163.6996 C.ar    1  UNL1        0.2339
      7 C         142.5793  140.0435  168.2215 C.3     1  UNL1        0.1109
      8 N         142.5161  139.9023  166.7296 N.am    1  UNL1       -0.2990
      9 C         143.2683  138.7977  166.0481 C.2     1  UNL1        0.2532
     10 O         144.0837  137.8344  166.8588 O.2     1  UNL1       -0.2699
     11 H         141.9810  140.5345  166.1975 H       1  UNL1        0.1498
     12 N         140.9948  137.3091  164.7773 N.pl3   1  UNL1       -0.3178
     13 H         141.2307  136.6559  165.4751 H       1  UNL1        0.1482
     14 C         139.5618  137.7012  164.5706 C.3     1  UNL1        0.0881
     15 C         139.1939  139.1478  164.4224 C.3     1  UNL1        0.0196
     16 C         138.5230  139.6266  163.1692 C.3     1  UNL1        0.0017
     17 C         138.1552  141.0732  163.0210 C.3     1  UNL1        0.0001
     18 C         138.4583  142.0411  164.1261 C.3     1  UNL1        0.0000
     19 C         138.6971  143.1199  165.1406 C.3     1  UNL1        0.0000
     20 C         138.1735  144.4084  164.5789 C.3     1  UNL1        0.0000
     21 C         137.6111  144.1260  163.2173 C.3     1  UNL1        0.0000
     22 C         137.7871  142.6629  162.9375 C.3     1  UNL1        0.0000
     23 C         139.1293  141.5624  165.3794 C.3     1  UNL1        0.0001
     24 C         139.4971  140.1157  165.5275 C.3     1  UNL1        0.0017
     25 C         143.0156  138.2329  160.0801 C.1     1  UNL1        0.1401
     26 N         142.9526  138.0917  158.5881 N.1     1  UNL1       -0.1876
     27 O         145.4155  140.0040  164.3350 O.3     1  UNL1       -0.4600
     28 C         145.7279  141.4062  163.9039 C.3     1  UNL1        0.2071
     29 C         144.6159  142.3880  163.6820 C.3     1  UNL1        0.0466
     30 C         143.6187  142.6506  164.7713 C.3     1  UNL1        0.0211
     31 C         142.5066  143.6325  164.5494 C.3     1  UNL1        0.0723
     32 N         142.3916  144.3518  163.2382 N.3     1  UNL1       -0.2715
     33 C         141.2796  145.3336  163.0163 C.3     1  UNL1        0.0896
     34 C         143.3888  144.0892  162.1488 C.3     1  UNL1        0.0723
     35 C         144.5009  143.1074  162.3707 C.3     1  UNL1        0.0211
@<TRIPOS>BOND
     1     7     8    1
     2     8     9   am
     3     9    10    2
     4     9     1    1
     5     1     2   ar
     6     2    12    1
     7    12    14    1
     8    14    15    1
     9    15    16    1
    10    16    17    1
    11    17    18    1
    12    18    19    1
    13    19    20    1
    14    20    21    1
    15    21    22    1
    16    18    23    1
    17    23    24    1
    18     2     3   ar
    19     3     4   ar
    20     4    25    1
    21    25    26    3
    22     4     5   ar
    23     5     6   ar
    24     6    27    1
    25    27    28    1
    26    28    29    1
    27    29    30    1
    28    30    31    1
    29    31    32    1
    30    32    33    1
    31    32    34    1
    32    34    35    1
    33     6     1   ar
    34    35    29    1
    35    24    15    1
    36    22    18    1
    37     8    11    1
    38    12    13    1
@<TRIPOS>MOLECULE
*****
 35 38 0 0 0
SMALL
GASTEIGER

@<TRIPOS>ATOM
      1 C         138.4173  139.7288  164.4364 C.ar    1  UNL1        0.1377
      2 C         138.7298  138.5672  163.5403 C.ar    1  UNL1        0.1397
      3 N         138.5464  138.6938  162.0569 N.ar    1  UNL1       -0.2027
      4 C         138.0506  139.9820  161.4698 C.ar    1  UNL1        0.2367
      5 N         137.7381  141.1436  162.3660 N.ar    1  UNL1       -0.1828
      6 C         137.9215  141.0170  163.8493 C.ar    1  UNL1        0.2339
      7 C         139.6925  140.4224  168.1302 C.3     1  UNL1        0.1109
      8 N         139.5091  140.5490  166.6468 N.am    1  UNL1       -0.2990
      9 C         138.6007  139.6022  165.9198 C.2     1  UNL1        0.2532
     10 O         137.8756  138.5288  166.6762 O.2     1  UNL1       -0.2699
     11 H         139.9850  141.2535  166.1504 H       1  UNL1        0.1498
     12 N         139.2256  137.2791  164.1275 N.pl3   1  UNL1       -0.3178
     13 H         138.5976  136.6696  164.5785 H       1  UNL1        0.1482
     14 C         140.6784  136.9195  164.0276 C.3     1  UNL1        0.0881
     15 C         141.7101  137.9990  163.8846 C.3     1  UNL1        0.0196
     16 C         142.2485  138.3471  162.5285 C.3     1  UNL1        0.0017
     17 C         143.2802  139.4265  162.3856 C.3     1  UNL1        0.0001
     18 C         143.7735  140.1579  163.5988 C.3     1  UNL1        0.0000
     19 C         144.3589  140.9713  164.7148 C.3     1  UNL1        0.0000
     20 C         145.3481  141.9296  164.1205 C.3     1  UNL1        0.0000
     21 C         145.3741  141.7083  162.6371 C.3     1  UNL1        0.0000
     22 C         144.4009  140.6133  162.3147 C.3     1  UNL1        0.0000
     23 C         143.2351  139.8097  164.9548 C.3     1  UNL1        0.0001
     24 C         142.2034  138.7303  165.0977 C.3     1  UNL1        0.0017
     25 C         137.8672  140.1087  159.9864 C.1     1  UNL1        0.1401
     26 N         137.6838  140.2353  158.5031 N.1     1  UNL1       -0.1876
     27 O         137.6090  142.1786  164.7454 O.3     1  UNL1       -0.4600
     28 C         137.9414  143.5742  164.3078 C.3     1  UNL1        0.2071
     29 C         139.3691  143.9630  164.0615 C.3     1  UNL1        0.0466
     30 C         140.4720  143.2879  164.8216 C.3     1  UNL1        0.0211
     31 C         141.8997  143.6767  164.5754 C.3     1  UNL1        0.0723
     32 N         142.2245  144.7405  163.5691 N.3     1  UNL1       -0.2715
     33 C         143.6521  145.1293  163.3228 C.3     1  UNL1        0.0896
     34 C         141.1215  145.4157  162.8089 C.3     1  UNL1        0.0723
     35 C         139.6939  145.0269  163.0552 C.3     1  UNL1        0.0211
@<TRIPOS>BOND
     1     7     8    1
     2     8     9   am
     3     9    10    2
     4     9     1    1
     5     1     2   ar
     6     2    12    1
     7    12    14    1
     8    14    15    1
     9    15    16    1
    10    16    17    1
    11    17    18    1
    12    18    19    1
    13    19    20    1
    14    20    21    1
    15    21    22    1
    16    18    23    1
    17    23    24    1
    18     2     3   ar
    19     3     4   ar
    20     4    25    1
    21    25    26    3
    22     4     5   ar
    23     5     6   ar
    24     6    27    1
    25    27    28    1
    26    28    29    1
    27    29    30    1
    28    30    31    1
    29    31    32    1
    30    32    33    1
    31    32    34    1
    32    34    35    1
    33     6     1   ar
    34    35    29    1
    35    24    15    1
    36    22    18    1
    37     8    11    1
    38    12    13    1
@<TRIPOS>MOLECULE
*****
 35 38 0 0 0
SMALL
GASTEIGER

@<TRIPOS>ATOM
      1 C         142.9656  138.4859  164.4880 C.ar    1  UNL1        0.1377
      2 C         144.1049  138.9503  163.6299 C.ar    1  UNL1        0.1397
      3 N         144.0616  138.7369  162.1458 N.ar    1  UNL1       -0.2027
      4 C         142.8789  138.0590  161.5198 C.ar    1  UNL1        0.2367
      5 N         141.7396  137.5946  162.3779 N.ar    1  UNL1       -0.1828
      6 C         141.7829  137.8081  163.8620 C.ar    1  UNL1        0.2339
      7 C         141.9898  139.7316  168.1276 C.3     1  UNL1        0.1109
      8 N         141.9464  139.5181  166.6435 N.am    1  UNL1       -0.2990
      9 C         143.0089  138.6994  165.9721 C.2     1  UNL1        0.2532
     10 O         144.1148  138.0940  166.7849 O.2     1  UNL1       -0.2699
     11 H         141.2206  139.9155  166.1100 H       1  UNL1        0.1498
     12 N         145.2875  139.6282  164.2559 N.pl3   1  UNL1       -0.3178
     13 H         145.8890  139.1213  164.8481 H       1  UNL1        0.1482
     14 C         145.5537  141.0783  163.9798 C.3     1  UNL1        0.0881
     15 C         144.4084  142.0281  163.7894 C.3     1  UNL1        0.0196
     16 C         144.2312  142.7363  162.4791 C.3     1  UNL1        0.0017
     17 C         143.0858  143.6861  162.2888 C.3     1  UNL1        0.0001
     18 C         142.1178  143.9276  163.4088 C.3     1  UNL1        0.0000
     19 C         141.0752  144.2679  164.4322 C.3     1  UNL1        0.0000
     20 C         140.1271  145.2544  163.8175 C.3     1  UNL1        0.0000
     21 C         140.5837  145.5239  162.4143 C.3     1  UNL1        0.0000
     22 C         141.8140  144.7038  162.1617 C.3     1  UNL1        0.0000
     23 C         142.2951  143.2194  164.7191 C.3     1  UNL1        0.0001
     24 C         143.4404  142.2696  164.9094 C.3     1  UNL1        0.0017
     25 C         142.8355  137.8456  160.0357 C.1     1  UNL1        0.1401
     26 N         142.7921  137.6322  158.5516 N.1     1  UNL1       -0.1876
     27 O         140.6436  137.3436  164.7201 O.3     1  UNL1       -0.4600
     28 C         139.2297  137.6237  164.3053 C.3     1  UNL1        0.2071
     29 C         138.8375  139.0013  163.8600 C.3     1  UNL1        0.0466
     30 C         138.9628  140.1592  164.8054 C.3     1  UNL1        0.0211
     31 C         138.5706  141.5369  164.3600 C.3     1  UNL1        0.0723
     32 N         138.0533  141.7567  162.9694 N.3     1  UNL1       -0.2715
     33 C         137.6612  143.1344  162.5241 C.3     1  UNL1        0.0896
     34 C         137.9281  140.5989  162.0240 C.3     1  UNL1        0.0723
     35 C         138.3202  139.2213  162.4693 C.3     1  UNL1        0.0211
@<TRIPOS>BOND
     1     7     8    1
     2     8     9   am
     3     9    10    2
     4     9     1    1
     5     1     2   ar
     6     2    12    1
     7    12    14    1
     8    14    15    1
     9    15    16    1
    10    16    17    1
    11    17    18    1
    12    18    19    1
    13    19    20    1
    14    20    21    1
    15    21    22    1
    16    18    23    1
    17    23    24    1
    18     2     3   ar
    19     3     4   ar
    20     4    25    1
    21    25    26    3
    22     4     5   ar
    23     5     6   ar
    24     6    27    1
    25    27    28    1
    26    28    29    1
    27    29    30    1
    28    30    31    1
    29    31    32    1
    30    32    33    1
    31    32    34    1
    32    34    35    1
    33     6     1   ar
    34    35    29    1
    35    24    15    1
    36    22    18    1
    37     8    11    1
    38    12    13    1
@<TRIPOS>MOLECULE
*****
 35 38 0 0 0
SMALL
GASTEIGER

@<TRIPOS>ATOM
      1 C         141.9710  144.3795  162.4260 C.ar    1  UNL1        0.1377
      2 C         140.6162  145.0168  162.3338 C.ar    1  UNL1        0.1397
      3 N         140.0709  145.4297  160.9989 N.ar    1  UNL1       -0.2027
      4 C         140.8805  145.2054  159.7561 C.ar    1  UNL1        0.2367
      5 N         142.2352  144.5682  159.8483 N.ar    1  UNL1       -0.1828
      6 C         142.7806  144.1552  161.1832 C.ar    1  UNL1        0.2339
      7 C         144.4750  143.8933  165.4664 C.3     1  UNL1        0.1109
      8 N         143.9297  144.3063  164.1315 N.am    1  UNL1       -0.2990
      9 C         142.5163  143.9666  163.7609 C.2     1  UNL1        0.2532
     10 O         141.6484  143.2139  164.7254 O.2     1  UNL1       -0.2699
     11 H         144.4993  144.8003  163.4985 H       1  UNL1        0.1498
     12 N         139.8068  145.2410  163.5766 N.pl3   1  UNL1       -0.3178
     13 H         140.0931  145.9138  164.2358 H       1  UNL1        0.1482
     14 C         138.5611  144.4402  163.8149 C.3     1  UNL1        0.0881
     15 C         138.6237  142.9415  163.8261 C.3     1  UNL1        0.0196
     16 C         138.6634  142.2022  165.1307 C.3     1  UNL1        0.0017
     17 C         138.7259  140.7035  165.1418 C.3     1  UNL1        0.0001
     18 C         138.7488  139.9441  163.8485 C.3     1  UNL1        0.0000
     19 C         138.7776  139.0539  162.6416 C.3     1  UNL1        0.0000
     20 C         138.8401  137.6322  163.1158 C.3     1  UNL1        0.0000
     21 C         138.8499  137.6438  164.6157 C.3     1  UNL1        0.0000
     22 C         138.7934  139.0727  165.0685 C.3     1  UNL1        0.0000
     23 C         138.7090  140.6834  162.5439 C.3     1  UNL1        0.0001
     24 C         138.6465  142.1821  162.5328 C.3     1  UNL1        0.0017
     25 C         140.3352  145.6184  158.4211 C.1     1  UNL1        0.1401
     26 N         139.7899  146.0312  157.0861 N.1     1  UNL1       -0.1876
     27 O         144.1353  143.5180  161.2754 O.3     1  UNL1       -0.4600
     28 C         144.2791  142.0342  161.1099 C.3     1  UNL1        0.2071
     29 C         144.0173  141.1212  162.2709 C.3     1  UNL1        0.0466
     30 C         145.1142  140.8162  163.2474 C.3     1  UNL1        0.0211
     31 C         144.8524  139.9032  164.4084 C.3     1  UNL1        0.0723
     32 N         143.4937  139.2952  164.5929 N.3     1  UNL1       -0.2715
     33 C         143.2319  138.3822  165.7539 C.3     1  UNL1        0.0896
     34 C         142.3966  139.6002  163.6164 C.3     1  UNL1        0.0723
     35 C         142.6585  140.5132  162.4554 C.3     1  UNL1        0.0211
@<TRIPOS>BOND
     1     7     8    1
     2     8     9   am
     3     9    10    2
     4     9     1    1
     5     1     2   ar
     6     2    12    1
     7    12    14    1
     8    14    15    1
     9    15    16    1
    10    16    17    1
    11    17    18    1
    12    18    19    1
    13    19    20    1
    14    20    21    1
    15    21    22    1
    16    18    23    1
    17    23    24    1
    18     2     3   ar
    19     3     4   ar
    20     4    25    1
    21    25    26    3
    22     4     5   ar
    23     5     6   ar
    24     6    27    1
    25    27    28    1
    26    28    29    1
    27    29    30    1
    28    30    31    1
    29    31    32    1
    30    32    33    1
    31    32    34    1
    32    34    35    1
    33     6     1   ar
    34    35    29    1
    35    24    15    1
    36    22    18    1
    37     8    11    1
    38    12    13    1
@<TRIPOS>MOLECULE
*****
 35 38 0 0 0
SMALL
GASTEIGER

@<TRIPOS>ATOM
      1 C         143.9280  141.5517  161.4197 C.ar    1  UNL1        0.1377
      2 C         143.8618  143.0277  161.1608 C.ar    1  UNL1        0.1397
      3 N         143.0406  143.5530  160.0208 N.ar    1  UNL1       -0.2027
      4 C         142.2857  142.6023  159.1397 C.ar    1  UNL1        0.2367
      5 N         142.3519  141.1263  159.3986 N.ar    1  UNL1       -0.1828
      6 C         143.1731  140.6010  160.5386 C.ar    1  UNL1        0.2339
      7 C         145.0501  139.3741  164.5422 C.3     1  UNL1        0.1109
      8 N         144.2289  139.8995  163.4022 N.am    1  UNL1       -0.2990
      9 C         144.7492  141.0263  162.5597 C.2     1  UNL1        0.2532
     10 O         146.0908  141.6277  162.8573 O.2     1  UNL1       -0.2699
     11 H         143.3484  139.5048  163.2068 H       1  UNL1        0.1498
     12 N         144.6168  143.9783  162.0419 N.pl3   1  UNL1       -0.3178
     13 H         145.5798  144.1239  161.8977 H       1  UNL1        0.1482
     14 C         143.9046  144.7071  163.1426 C.3     1  UNL1        0.0881
     15 C         143.2565  143.9372  164.2550 C.3     1  UNL1        0.0196
     16 C         144.1028  143.2778  165.3032 C.3     1  UNL1        0.0017
     17 C         143.4546  142.5080  166.4155 C.3     1  UNL1        0.0001
     18 C         141.9601  142.3977  166.4797 C.3     1  UNL1        0.0000
     19 C         140.4857  142.2017  166.6738 C.3     1  UNL1        0.0000
     20 C         140.2869  141.3716  167.9073 C.3     1  UNL1        0.0000
     21 C         141.6385  141.0546  168.4755 C.3     1  UNL1        0.0000
     22 C         142.6726  141.6888  167.5931 C.3     1  UNL1        0.0000
     23 C         141.1137  143.0571  165.4314 C.3     1  UNL1        0.0001
     24 C         141.7619  143.8269  164.3191 C.3     1  UNL1        0.0017
     25 C         141.4644  143.1277  157.9996 C.1     1  UNL1        0.1401
     26 N         140.6433  143.6530  156.8596 N.1     1  UNL1       -0.1876
     27 O         143.2393  139.1250  160.7975 O.3     1  UNL1       -0.4600
     28 C         142.0003  138.2873  160.6836 C.3     1  UNL1        0.2071
     29 C         141.1302  138.0677  161.8855 C.3     1  UNL1        0.0466
     30 C         141.7413  137.6318  163.1842 C.3     1  UNL1        0.0211
     31 C         140.8712  137.4123  164.3863 C.3     1  UNL1        0.0723
     32 N         139.3901  137.6285  164.2896 N.3     1  UNL1       -0.2715
     33 C         138.5200  137.4090  165.4915 C.3     1  UNL1        0.0896
     34 C         138.7789  138.0644  162.9908 C.3     1  UNL1        0.0723
     35 C         139.6490  138.2840  161.7889 C.3     1  UNL1        0.0211
@<TRIPOS>BOND
     1     7     8    1
     2     8     9   am
     3     9    10    2
     4     9     1    1
     5     1     2   ar
     6     2    12    1
     7    12    14    1
     8    14    15    1
     9    15    16    1
    10    16    17    1
    11    17    18    1
    12    18    19    1
    13    19    20    1
    14    20    21    1
    15    21    22    1
    16    18    23    1
    17    23    24    1
    18     2     3   ar
    19     3     4   ar
    20     4    25    1
    21    25    26    3
    22     4     5   ar
    23     5     6   ar
    24     6    27    1
    25    27    28    1
    26    28    29    1
    27    29    30    1
    28    30    31    1
    29    31    32    1
    30    32    33    1
    31    32    34    1
    32    34    35    1
    33     6     1   ar
    34    35    29    1
    35    24    15    1
    36    22    18    1
    37     8    11    1
    38    12    13    1
@<TRIPOS>MOLECULE
*****
 35 38 0 0 0
SMALL
GASTEIGER

@<TRIPOS>ATOM
      1 C         140.0998  143.5448  161.7553 C.ar    1  UNL1        0.1377
      2 C         141.5045  143.5999  161.2322 C.ar    1  UNL1        0.1397
      3 N         141.9457  142.6419  160.1656 N.ar    1  UNL1       -0.2027
      4 C         140.9821  141.6289  159.6221 C.ar    1  UNL1        0.2367
      5 N         139.5774  141.5739  160.1452 N.ar    1  UNL1       -0.1828
      6 C         139.1361  142.5318  161.2118 C.ar    1  UNL1        0.2339
      7 C         138.7870  144.9440  165.2294 C.3     1  UNL1        0.1109
      8 N         139.2282  143.9861  164.1628 N.am    1  UNL1       -0.2990
      9 C         139.6586  144.5027  162.8219 C.2     1  UNL1        0.2532
     10 O         139.6476  145.9774  162.5477 O.2     1  UNL1       -0.2699
     11 H         139.2354  143.0182  164.3428 H       1  UNL1        0.1498
     12 N         142.4681  144.6129  161.7758 N.pl3   1  UNL1       -0.3178
     13 H         142.3146  145.5725  161.6180 H       1  UNL1        0.1482
     14 C         143.6654  144.1638  162.5597 C.3     1  UNL1        0.0881
     15 C         143.5525  143.0018  163.5016 C.3     1  UNL1        0.0196
     16 C         142.8658  143.1724  164.8242 C.3     1  UNL1        0.0017
     17 C         142.7529  142.0104  165.7660 C.3     1  UNL1        0.0001
     18 C         143.3268  140.6778  165.3853 C.3     1  UNL1        0.0000
     19 C         143.8492  139.2928  165.1432 C.3     1  UNL1        0.0000
     20 C         143.5170  138.4559  166.3429 C.3     1  UNL1        0.0000
     21 C         142.7891  139.3237  167.3264 C.3     1  UNL1        0.0000
     22 C         142.6716  140.6970  166.7345 C.3     1  UNL1        0.0000
     23 C         144.0135  140.5073  164.0627 C.3     1  UNL1        0.0001
     24 C         144.1264  141.6693  163.1208 C.3     1  UNL1        0.0017
     25 C         141.4233  140.6709  158.5555 C.1     1  UNL1        0.1401
     26 N         141.8644  139.7130  157.4888 N.1     1  UNL1       -0.1876
     27 O         137.7314  142.4767  161.7349 O.3     1  UNL1       -0.4600
     28 C         137.3585  141.4651  162.7776 C.3     1  UNL1        0.2071
     29 C         138.2737  140.3120  163.0651 C.3     1  UNL1        0.0466
     30 C         139.3107  140.4281  164.1427 C.3     1  UNL1        0.0211
     31 C         140.2260  139.2749  164.4302 C.3     1  UNL1        0.0723
     32 N         140.1043  138.0058  163.6401 N.3     1  UNL1       -0.2715
     33 C         141.0195  136.8527  163.9276 C.3     1  UNL1        0.0896
     34 C         139.0673  137.8896  162.5625 C.3     1  UNL1        0.0723
     35 C         138.1521  139.0427  162.2750 C.3     1  UNL1        0.0211
@<TRIPOS>BOND
     1     7     8    1
     2     8     9   am
     3     9    10    2
     4     9     1    1
     5     1     2   ar
     6     2    12    1
     7    12    14    1
     8    14    15    1
     9    15    16    1
    10    16    17    1
    11    17    18    1
    12    18    19    1
    13    19    20    1
    14    20    21    1
    15    21    22    1
    16    18    23    1
    17    23    24    1
    18     2     3   ar
    19     3     4   ar
    20     4    25    1
    21    25    26    3
    22     4     5   ar
    23     5     6   ar
    24     6    27    1
    25    27    28    1
    26    28    29    1
    27    29    30    1
    28    30    31    1
    29    31    32    1
    30    32    33    1
    31    32    34    1
    32    34    35    1
    33     6     1   ar
    34    35    29    1
    35    24    15    1
    36    22    18    1
    37     8    11    1
    38    12    13    1
@<TRIPOS>MOLECULE
*****
 35 38 0 0 0
SMALL
GASTEIGER

@<TRIPOS>ATOM
      1 C         142.8706  138.8969  163.2217 C.ar    1  UNL1        0.1377
      2 C         141.9167  137.8804  162.6677 C.ar    1  UNL1        0.1397
      3 N         141.9386  137.5505  161.2046 N.ar    1  UNL1       -0.2027
      4 C         142.9144  138.2372  160.2955 C.ar    1  UNL1        0.2367
      5 N         143.8683  139.2536  160.8495 N.ar    1  UNL1       -0.1828
      6 C         143.8464  139.5835  162.3126 C.ar    1  UNL1        0.2339
      7 C         142.7479  140.9869  166.5933 C.3     1  UNL1        0.1109
      8 N         142.7698  140.6570  165.1302 N.am    1  UNL1       -0.2990
      9 C         142.8487  139.2268  164.6848 C.2     1  UNL1        0.2532
     10 O         142.9057  138.1264  165.7027 O.2     1  UNL1       -0.2699
     11 H         142.7324  141.3792  164.4621 H       1  UNL1        0.1498
     12 N         140.9409  137.1939  163.5768 N.pl3   1  UNL1       -0.3178
     13 H         141.2458  136.4686  164.1686 H       1  UNL1        0.1482
     14 C         139.5005  137.6124  163.5842 C.3     1  UNL1        0.0881
     15 C         139.1428  139.0682  163.6390 C.3     1  UNL1        0.0196
     16 C         139.3188  139.8364  164.9152 C.3     1  UNL1        0.0017
     17 C         138.9610  141.2921  164.9698 C.3     1  UNL1        0.0001
     18 C         138.4273  141.9796  163.7482 C.3     1  UNL1        0.0000
     19 C         137.8855  142.7975  162.6135 C.3     1  UNL1        0.0000
     20 C         137.6719  144.1963  163.1112 C.3     1  UNL1        0.0000
     21 C         138.0816  144.2429  164.5534 C.3     1  UNL1        0.0000
     22 C         138.5485  142.8728  164.9471 C.3     1  UNL1        0.0000
     23 C         138.2513  141.2114  162.4719 C.3     1  UNL1        0.0001
     24 C         138.6090  139.7557  162.4173 C.3     1  UNL1        0.0017
     25 C         142.9364  137.9073  158.8324 C.1     1  UNL1        0.1401
     26 N         142.9583  137.5774  157.3693 N.1     1  UNL1       -0.1876
     27 O         144.8003  140.5999  162.8666 O.3     1  UNL1       -0.4600
     28 C         145.0326  141.8880  162.1340 C.3     1  UNL1        0.2071
     29 C         143.8805  142.8031  161.8421 C.3     1  UNL1        0.0466
     30 C         143.3228  142.8868  160.4521 C.3     1  UNL1        0.0211
     31 C         142.1706  143.8020  160.1601 C.3     1  UNL1        0.0723
     32 N         141.5762  144.6332  161.2580 N.3     1  UNL1       -0.2715
     33 C         140.4241  145.5483  160.9660 C.3     1  UNL1        0.0896
     34 C         142.1338  144.5495  162.6480 C.3     1  UNL1        0.0723
     35 C         143.2859  143.6344  162.9400 C.3     1  UNL1        0.0211
@<TRIPOS>BOND
     1     7     8    1
     2     8     9   am
     3     9    10    2
     4     9     1    1
     5     1     2   ar
     6     2    12    1
     7    12    14    1
     8    14    15    1
     9    15    16    1
    10    16    17    1
    11    17    18    1
    12    18    19    1
    13    19    20    1
    14    20    21    1
    15    21    22    1
    16    18    23    1
    17    23    24    1
    18     2     3   ar
    19     3     4   ar
    20     4    25    1
    21    25    26    3
    22     4     5   ar
    23     5     6   ar
    24     6    27    1
    25    27    28    1
    26    28    29    1
    27    29    30    1
    28    30    31    1
    29    31    32    1
    30    32    33    1
    31    32    34    1
    32    34    35    1
    33     6     1   ar
    34    35    29    1
    35    24    15    1
    36    22    18    1
    37     8    11    1
    38    12    13    1
@<TRIPOS>MOLECULE
*****
 35 38 0 0 0
SMALL
GASTEIGER

@<TRIPOS>ATOM
      1 C         138.4196  142.6308  163.1989 C.ar    1  UNL1        0.1377
      2 C         138.5047  143.5022  161.9809 C.ar    1  UNL1        0.1397
      3 N         138.3272  142.9040  160.6169 N.ar    1  UNL1       -0.2027
      4 C         138.0646  141.4343  160.4709 C.ar    1  UNL1        0.2367
      5 N         137.9796  140.5630  161.6889 N.ar    1  UNL1       -0.1828
      6 C         138.1571  141.1612  163.0529 C.ar    1  UNL1        0.2339
      7 C         139.7927  143.2569  166.8695 C.3     1  UNL1        0.1109
      8 N         139.6152  142.6587  165.5055 N.am    1  UNL1       -0.2990
      9 C         138.5971  143.2291  164.5629 C.2     1  UNL1        0.2532
     10 O         137.7566  144.3978  164.9845 O.2     1  UNL1       -0.2699
     11 H         140.1668  141.8917  165.2288 H       1  UNL1        0.1498
     12 N         138.7672  144.9718  162.1270 N.pl3   1  UNL1       -0.3178
     13 H         138.0384  145.5781  162.3928 H       1  UNL1        0.1482
     14 C         140.1401  145.5177  161.8681 C.3     1  UNL1        0.0881
     15 C         141.3496  144.7341  162.2843 C.3     1  UNL1        0.0196
     16 C         142.1276  143.9572  161.2639 C.3     1  UNL1        0.0017
     17 C         143.3371  143.1736  161.6801 C.3     1  UNL1        0.0001
     18 C         143.7685  143.1669  163.1167 C.3     1  UNL1        0.0000
     19 C         144.3174  143.0660  164.5090 C.3     1  UNL1        0.0000
     20 C         145.5295  142.1833  164.4665 C.3     1  UNL1        0.0000
     21 C         145.7296  141.7387  163.0479 C.3     1  UNL1        0.0000
     22 C         144.6412  142.3466  162.2137 C.3     1  UNL1        0.0000
     23 C         142.9904  143.9437  164.1371 C.3     1  UNL1        0.0001
     24 C         141.7810  144.7273  163.7209 C.3     1  UNL1        0.0017
     25 C         137.8871  140.8360  159.1069 C.1     1  UNL1        0.1401
     26 N         137.7096  140.2378  157.7428 N.1     1  UNL1       -0.1876
     27 O         138.0720  140.2898  164.2709 O.3     1  UNL1       -0.4600
     28 C         138.8139  138.9869  164.3142 C.3     1  UNL1        0.2071
     29 C         140.1415  138.8566  163.6283 C.3     1  UNL1        0.0466
     30 C         141.3034  139.6916  164.0785 C.3     1  UNL1        0.0211
     31 C         142.6311  139.5613  163.3926 C.3     1  UNL1        0.0723
     32 N         142.7968  138.5961  162.2565 N.3     1  UNL1       -0.2715
     33 C         144.1244  138.4657  161.5706 C.3     1  UNL1        0.0896
     34 C         141.6348  137.7610  161.8062 C.3     1  UNL1        0.0723
     35 C         140.3072  137.8913  162.4921 C.3     1  UNL1        0.0211
@<TRIPOS>BOND
     1     7     8    1
     2     8     9   am
     3     9    10    2
     4     9     1    1
     5     1     2   ar
     6     2    12    1
     7    12    14    1
     8    14    15    1
     9    15    16    1
    10    16    17    1
    11    17    18    1
    12    18    19    1
    13    19    20    1
    14    20    21    1
    15    21    22    1
    16    18    23    1
    17    23    24    1
    18     2     3   ar
    19     3     4   ar
    20     4    25    1
    21    25    26    3
    22     4     5   ar
    23     5     6   ar
    24     6    27    1
    25    27    28    1
    26    28    29    1
    27    29    30    1
    28    30    31    1
    29    31    32    1
    30    32    33    1
    31    32    34    1
    32    34    35    1
    33     6     1   ar
    34    35    29    1
    35    24    15    1
    36    22    18    1
    37     8    11    1
    38    12    13    1
