@<TRIPOS>MOLECULE
*****
 29 32 0 0 0
SMALL
GASTEIGER

@<TRIPOS>ATOM
      1 C         141.6967  138.9597  163.7524 C.ar    1  UNL1        0.0878
      2 C         141.0388  138.1443  162.6789 C.ar    1  UNL1        0.0091
      3 C         139.6504  137.6149  162.8838 C.ar    1  UNL1        0.0194
      4 C         138.9198  137.9009  164.1622 C.ar    1  UNL1        0.0844
      5 N         139.5775  138.7162  165.2357 N.ar    1  UNL1       -0.2576
      6 C         138.8469  139.0022  166.5141 C.ar    1  UNL1        0.2672
      7 O         137.4585  138.4728  166.7190 O.2     1  UNL1       -0.2665
      8 C         139.5047  139.8176  167.5877 C.ar    1  UNL1        0.0742
      9 C         138.7740  140.1036  168.8661 C.ar    1  UNL1        0.0063
     10 C         139.4317  140.9190  169.9396 C.ar    1  UNL1        0.0003
     11 C         140.8202  141.4484  169.7348 C.ar    1  UNL1        0.0015
     12 C         141.4780  142.2638  170.8083 C.ar    1  UNL1        0.0000
     13 C         142.8663  142.7932  170.6034 C.ar    1  UNL1        0.0000
     14 C         143.5970  142.5073  169.3250 C.ar    1  UNL1        0.0000
     15 C         142.9393  141.6919  168.2515 C.ar    1  UNL1        0.0015
     16 C         141.5509  141.1625  168.4564 C.ar    1  UNL1        0.0179
     17 C         140.8931  140.3470  167.3828 C.ar    1  UNL1        0.0875
     18 N         141.6237  140.0611  166.1044 N.ar    1  UNL1       -0.2276
     19 C         140.9660  139.2457  165.0309 C.ar    1  UNL1        0.1543
     20 N         143.3073  140.6989  162.6890 N.am    1  UNL1       -0.3007
     21 C         143.0851  139.4891  163.5475 C.2     1  UNL1        0.2488
     22 O         144.2513  138.8088  164.2012 O.2     1  UNL1       -0.2700
     23 H         142.5420  141.1454  162.2600 H       1  UNL1        0.1497
     24 C         144.6958  141.2283  162.4841 C.3     1  UNL1        0.0911
     25 C         145.3870  141.9687  163.5905 C.3     1  UNL1        0.0386
     26 C         144.5799  142.6866  164.6312 C.3     1  UNL1        0.0739
     27 C         142.0739  143.3655  164.7269 C.3     1  UNL1        0.0897
     28 N         143.4648  143.6004  164.2169 N.3     1  UNL1       -0.2703
     29 C         143.7407  144.7492  163.2927 C.3     1  UNL1        0.0897
@<TRIPOS>BOND
     1    27    28    1
     2    28    29    1
     3    28    26    1
     4    26    25    1
     5    25    24    1
     6    24    20    1
     7    20    21   am
     8    21    22    2
     9    21     1    1
    10     1     2   ar
    11     2     3   ar
    12     3     4   ar
    13     4     5   ar
    14     5     6   ar
    15     6     7    2
    16     6     8   ar
    17     8     9   ar
    18     9    10   ar
    19    10    11   ar
    20    11    12   ar
    21    12    13   ar
    22    13    14   ar
    23    14    15   ar
    24    15    16   ar
    25    16    17   ar
    26    17    18   ar
    27    18    19   ar
    28    19     1   ar
    29    19     5   ar
    30    17     8   ar
    31    16    11   ar
    32    20    23    1
@<TRIPOS>MOLECULE
*****
 29 32 0 0 0
SMALL
GASTEIGER

@<TRIPOS>ATOM
      1 C         142.9537  141.7050  163.6507 C.ar    1  UNL1        0.0878
      2 C         143.6556  141.0522  162.4969 C.ar    1  UNL1        0.0091
      3 C         144.3064  139.7126  162.6758 C.ar    1  UNL1        0.0194
      4 C         144.2553  139.0259  164.0084 C.ar    1  UNL1        0.0844
      5 N         143.5534  139.6787  165.1621 N.ar    1  UNL1       -0.2576
      6 C         143.5023  138.9919  166.4947 C.ar    1  UNL1        0.2672
      7 O         144.1531  137.6524  166.6735 O.2     1  UNL1       -0.2665
      8 C         142.8004  139.6448  167.6484 C.ar    1  UNL1        0.0742
      9 C         142.7493  138.9581  168.9810 C.ar    1  UNL1        0.0063
     10 C         142.0474  139.6109  170.1348 C.ar    1  UNL1        0.0003
     11 C         141.3965  140.9505  169.9559 C.ar    1  UNL1        0.0015
     12 C         140.6946  141.6033  171.1097 C.ar    1  UNL1        0.0000
     13 C         140.0438  142.9428  170.9308 C.ar    1  UNL1        0.0000
     14 C         140.0949  143.6296  169.5982 C.ar    1  UNL1        0.0000
     15 C         140.7968  142.9768  168.4445 C.ar    1  UNL1        0.0015
     16 C         141.4476  141.6372  168.6234 C.ar    1  UNL1        0.0179
     17 C         142.1496  140.9844  167.4696 C.ar    1  UNL1        0.0875
     18 N         142.2007  141.6711  166.1370 N.ar    1  UNL1       -0.2276
     19 C         142.9026  141.0183  164.9833 C.ar    1  UNL1        0.1543
     20 N         140.8840  143.2537  163.9112 N.am    1  UNL1       -0.3007
     21 C         142.3029  143.0446  163.4718 C.2     1  UNL1        0.2488
     22 O         143.0710  144.1751  162.8536 O.2     1  UNL1       -0.2700
     23 H         140.3798  142.5118  164.3169 H       1  UNL1        0.1497
     24 C         140.2332  144.5934  163.7323 C.3     1  UNL1        0.0911
     25 C         138.7761  144.7669  164.0436 C.3     1  UNL1        0.0386
     26 C         137.7390  144.2526  163.0898 C.3     1  UNL1        0.0739
     27 C         137.4863  141.6846  163.3914 C.3     1  UNL1        0.0897
     28 N         137.8514  142.8625  162.5376 N.3     1  UNL1       -0.2703
     29 C         138.3288  142.6504  161.1316 C.3     1  UNL1        0.0897
@<TRIPOS>BOND
     1    27    28    1
     2    28    29    1
     3    28    26    1
     4    26    25    1
     5    25    24    1
     6    24    20    1
     7    20    21   am
     8    21    22    2
     9    21     1    1
    10     1     2   ar
    11     2     3   ar
    12     3     4   ar
    13     4     5   ar
    14     5     6   ar
    15     6     7    2
    16     6     8   ar
    17     8     9   ar
    18     9    10   ar
    19    10    11   ar
    20    11    12   ar
    21    12    13   ar
    22    13    14   ar
    23    14    15   ar
    24    15    16   ar
    25    16    17   ar
    26    17    18   ar
    27    18    19   ar
    28    19     1   ar
    29    19     5   ar
    30    17     8   ar
    31    16    11   ar
    32    20    23    1
@<TRIPOS>MOLECULE
*****
 29 32 0 0 0
SMALL
GASTEIGER

@<TRIPOS>ATOM
      1 C         141.6147  141.7176  168.4738 C.ar    1  UNL1        0.0878
      2 C         141.1111  142.0355  169.8506 C.ar    1  UNL1        0.0091
      3 C         139.8503  141.3975  170.3538 C.ar    1  UNL1        0.0194
      4 C         139.0930  140.4416  169.4804 C.ar    1  UNL1        0.0844
      5 N         139.5966  140.1237  168.1037 N.ar    1  UNL1       -0.2576
      6 C         138.8394  139.1678  167.2303 C.ar    1  UNL1        0.2672
      7 O         137.5786  138.5298  167.7335 O.2     1  UNL1       -0.2665
      8 C         139.3430  138.8499  165.8535 C.ar    1  UNL1        0.0742
      9 C         138.5858  137.8940  164.9801 C.ar    1  UNL1        0.0063
     10 C         139.0893  137.5761  163.6034 C.ar    1  UNL1        0.0003
     11 C         140.3502  138.2141  163.1001 C.ar    1  UNL1        0.0015
     12 C         140.8538  137.8962  161.7234 C.ar    1  UNL1        0.0000
     13 C         142.1146  138.5342  161.2202 C.ar    1  UNL1        0.0000
     14 C         142.8718  139.4900  162.0936 C.ar    1  UNL1        0.0000
     15 C         142.3683  139.8079  163.4703 C.ar    1  UNL1        0.0015
     16 C         141.1075  139.1700  163.9735 C.ar    1  UNL1        0.0179
     17 C         140.6038  139.4879  165.3503 C.ar    1  UNL1        0.0875
     18 N         141.3610  140.4438  166.2237 N.ar    1  UNL1       -0.2276
     19 C         140.8575  140.7617  167.6004 C.ar    1  UNL1        0.1543
     20 N         143.0332  142.6544  166.5092 N.am    1  UNL1       -0.3007
     21 C         142.8755  142.3555  167.9706 C.2     1  UNL1        0.2488
     22 O         143.9787  142.6946  168.9288 O.2     1  UNL1       -0.2700
     23 H         142.3092  142.4319  165.8803 H       1  UNL1        0.1497
     24 C         144.2941  143.2925  166.0059 C.3     1  UNL1        0.0911
     25 C         144.2920  144.0294  164.6994 C.3     1  UNL1        0.0386
     26 C         143.8004  143.3500  163.4559 C.3     1  UNL1        0.0739
     27 C         145.7814  141.6826  163.2427 C.3     1  UNL1        0.0897
     28 N         144.7535  142.5674  162.6020 N.3     1  UNL1       -0.2703
     29 C         144.6788  142.6696  161.1074 C.3     1  UNL1        0.0897
@<TRIPOS>BOND
     1    27    28    1
     2    28    29    1
     3    28    26    1
     4    26    25    1
     5    25    24    1
     6    24    20    1
     7    20    21   am
     8    21    22    2
     9    21     1    1
    10     1     2   ar
    11     2     3   ar
    12     3     4   ar
    13     4     5   ar
    14     5     6   ar
    15     6     7    2
    16     6     8   ar
    17     8     9   ar
    18     9    10   ar
    19    10    11   ar
    20    11    12   ar
    21    12    13   ar
    22    13    14   ar
    23    14    15   ar
    24    15    16   ar
    25    16    17   ar
    26    17    18   ar
    27    18    19   ar
    28    19     1   ar
    29    19     5   ar
    30    17     8   ar
    31    16    11   ar
    32    20    23    1
@<TRIPOS>MOLECULE
*****
 29 32 0 0 0
SMALL
GASTEIGER

@<TRIPOS>ATOM
      1 C         140.5368  142.4530  161.3235 C.ar    1  UNL1        0.0878
      2 C         140.3564  142.2207  159.8526 C.ar    1  UNL1        0.0091
      3 C         139.6212  141.0056  159.3699 C.ar    1  UNL1        0.0194
      4 C         139.0665  140.0228  160.3580 C.ar    1  UNL1        0.0844
      5 N         139.2469  140.2551  161.8288 N.ar    1  UNL1       -0.2576
      6 C         138.6921  139.2723  162.8169 C.ar    1  UNL1        0.2672
      7 O         137.9570  138.0572  162.3342 O.2     1  UNL1       -0.2665
      8 C         138.8725  139.5047  164.2879 C.ar    1  UNL1        0.0742
      9 C         138.3178  138.5219  165.2760 C.ar    1  UNL1        0.0063
     10 C         138.4981  138.7542  166.7468 C.ar    1  UNL1        0.0003
     11 C         139.2333  139.9693  167.2296 C.ar    1  UNL1        0.0015
     12 C         139.4137  140.2016  168.7005 C.ar    1  UNL1        0.0000
     13 C         140.1488  141.4167  169.1832 C.ar    1  UNL1        0.0000
     14 C         140.7036  142.3995  168.1951 C.ar    1  UNL1        0.0000
     15 C         140.5232  142.1672  166.7243 C.ar    1  UNL1        0.0015
     16 C         139.7881  140.9521  166.2415 C.ar    1  UNL1        0.0179
     17 C         139.6077  140.7197  164.7706 C.ar    1  UNL1        0.0875
     18 N         140.1624  141.7025  163.7825 N.ar    1  UNL1       -0.2276
     19 C         139.9820  141.4702  162.3116 C.ar    1  UNL1        0.1543
     20 N         142.4459  143.5176  162.7277 N.am    1  UNL1       -0.3007
     21 C         141.2719  143.6681  161.8062 C.2     1  UNL1        0.2488
     22 O         140.8331  145.0338  161.3675 O.2     1  UNL1       -0.2700
     23 H         142.7340  142.6213  163.0156 H       1  UNL1        0.1497
     24 C         143.1811  144.7328  163.2104 C.3     1  UNL1        0.0911
     25 C         144.0774  144.6400  164.4096 C.3     1  UNL1        0.0386
     26 C         144.0589  143.4088  165.2663 C.3     1  UNL1        0.0739
     27 C         145.6145  141.9440  163.7883 C.3     1  UNL1        0.0897
     28 N         144.4103  142.0768  164.6728 N.3     1  UNL1       -0.2703
     29 C         143.5575  140.8776  164.9637 C.3     1  UNL1        0.0897
@<TRIPOS>BOND
     1    27    28    1
     2    28    29    1
     3    28    26    1
     4    26    25    1
     5    25    24    1
     6    24    20    1
     7    20    21   am
     8    21    22    2
     9    21     1    1
    10     1     2   ar
    11     2     3   ar
    12     3     4   ar
    13     4     5   ar
    14     5     6   ar
    15     6     7    2
    16     6     8   ar
    17     8     9   ar
    18     9    10   ar
    19    10    11   ar
    20    11    12   ar
    21    12    13   ar
    22    13    14   ar
    23    14    15   ar
    24    15    16   ar
    25    16    17   ar
    26    17    18   ar
    27    18    19   ar
    28    19     1   ar
    29    19     5   ar
    30    17     8   ar
    31    16    11   ar
    32    20    23    1
@<TRIPOS>MOLECULE
*****
 29 32 0 0 0
SMALL
GASTEIGER

@<TRIPOS>ATOM
      1 C         142.7010  140.0725  162.2795 C.ar    1  UNL1        0.0878
      2 C         142.7683  139.5446  160.8770 C.ar    1  UNL1        0.0091
      3 C         141.7229  138.5883  160.3846 C.ar    1  UNL1        0.0194
      4 C         140.6101  138.1598  161.2947 C.ar    1  UNL1        0.0844
      5 N         140.5428  138.6877  162.6971 N.ar    1  UNL1       -0.2576
      6 C         139.4300  138.2593  163.6071 C.ar    1  UNL1        0.2672
      7 O         138.3845  137.3030  163.1148 O.2     1  UNL1       -0.2665
      8 C         139.3627  138.7872  165.0096 C.ar    1  UNL1        0.0742
      9 C         138.2499  138.3588  165.9196 C.ar    1  UNL1        0.0063
     10 C         138.1826  138.8867  167.3220 C.ar    1  UNL1        0.0003
     11 C         139.2281  139.8431  167.8144 C.ar    1  UNL1        0.0015
     12 C         139.1608  140.3709  169.2168 C.ar    1  UNL1        0.0000
     13 C         140.2062  141.3273  169.7092 C.ar    1  UNL1        0.0000
     14 C         141.3190  141.7557  168.7991 C.ar    1  UNL1        0.0000
     15 C         141.3863  141.2278  167.3967 C.ar    1  UNL1        0.0015
     16 C         140.3409  140.2715  166.9044 C.ar    1  UNL1        0.0179
     17 C         140.4081  139.7436  165.5019 C.ar    1  UNL1        0.0875
     18 N         141.5209  140.1720  164.5919 N.ar    1  UNL1       -0.2276
     19 C         141.5883  139.6441  163.1895 C.ar    1  UNL1        0.1543
     20 N         143.3504  142.2033  163.6166 N.am    1  UNL1       -0.3007
     21 C         143.7465  141.0288  162.7718 C.2     1  UNL1        0.2488
     22 O         145.1881  140.8107  162.4194 O.2     1  UNL1       -0.2700
     23 H         142.4042  142.3465  163.8479 H       1  UNL1        0.1497
     24 C         144.3959  143.1597  164.1089 C.3     1  UNL1        0.0911
     25 C         143.9951  144.5136  164.6150 C.3     1  UNL1        0.0386
     26 C         143.1105  145.3938  163.7827 C.3     1  UNL1        0.0739
     27 C         141.5695  144.6472  161.8288 C.3     1  UNL1        0.0897
     28 N         141.7882  144.8810  163.2942 N.3     1  UNL1       -0.2703
     29 C         140.6847  144.6019  164.2711 C.3     1  UNL1        0.0897
@<TRIPOS>BOND
     1    27    28    1
     2    28    29    1
     3    28    26    1
     4    26    25    1
     5    25    24    1
     6    24    20    1
     7    20    21   am
     8    21    22    2
     9    21     1    1
    10     1     2   ar
    11     2     3   ar
    12     3     4   ar
    13     4     5   ar
    14     5     6   ar
    15     6     7    2
    16     6     8   ar
    17     8     9   ar
    18     9    10   ar
    19    10    11   ar
    20    11    12   ar
    21    12    13   ar
    22    13    14   ar
    23    14    15   ar
    24    15    16   ar
    25    16    17   ar
    26    17    18   ar
    27    18    19   ar
    28    19     1   ar
    29    19     5   ar
    30    17     8   ar
    31    16    11   ar
    32    20    23    1
@<TRIPOS>MOLECULE
*****
 29 32 0 0 0
SMALL
GASTEIGER

@<TRIPOS>ATOM
      1 C         139.4959  140.0942  167.1231 C.ar    1  UNL1        0.0878
      2 C         139.0700  139.8495  168.5404 C.ar    1  UNL1        0.0091
      3 C         139.8911  140.3885  169.6740 C.ar    1  UNL1        0.0194
      4 C         141.1383  141.1722  169.3904 C.ar    1  UNL1        0.0844
      5 N         141.5642  141.4169  167.9731 N.ar    1  UNL1       -0.2576
      6 C         142.8113  142.2007  167.6895 C.ar    1  UNL1        0.2672
      7 O         143.6325  142.7397  168.8231 O.2     1  UNL1       -0.2665
      8 C         143.2373  142.4454  166.2722 C.ar    1  UNL1        0.0742
      9 C         144.4844  143.2291  165.9886 C.ar    1  UNL1        0.0063
     10 C         144.9104  143.4739  164.5713 C.ar    1  UNL1        0.0003
     11 C         144.0892  142.9349  163.4376 C.ar    1  UNL1        0.0015
     12 C         144.5152  143.1796  162.0204 C.ar    1  UNL1        0.0000
     13 C         143.6940  142.6406  160.8868 C.ar    1  UNL1        0.0000
     14 C         142.4469  141.8569  161.1704 C.ar    1  UNL1        0.0000
     15 C         142.0209  141.6121  162.5876 C.ar    1  UNL1        0.0015
     16 C         142.8421  142.1511  163.7212 C.ar    1  UNL1        0.0179
     17 C         142.4161  141.9064  165.1386 C.ar    1  UNL1        0.0875
     18 N         141.1690  141.1227  165.4222 N.ar    1  UNL1       -0.2276
     19 C         140.7430  140.8779  166.8394 C.ar    1  UNL1        0.1543
     20 N         138.5208  140.3536  164.7290 N.am    1  UNL1       -0.3007
     21 C         138.6748  139.5552  165.9894 C.2     1  UNL1        0.2488
     22 O         138.0076  138.2177  166.1163 O.2     1  UNL1       -0.2700
     23 H         138.9586  141.2314  164.6457 H       1  UNL1        0.1497
     24 C         137.6996  139.8145  163.5953 C.3     1  UNL1        0.0911
     25 C         138.3706  139.1236  162.4454 C.3     1  UNL1        0.0386
     26 C         138.9822  137.7677  162.6387 C.3     1  UNL1        0.0739
     27 C         141.4258  137.8682  161.7618 C.3     1  UNL1        0.0897
     28 N         140.4565  137.6378  162.8831 N.3     1  UNL1       -0.2703
     29 C         140.9614  137.2776  164.2488 C.3     1  UNL1        0.0897
@<TRIPOS>BOND
     1    27    28    1
     2    28    29    1
     3    28    26    1
     4    26    25    1
     5    25    24    1
     6    24    20    1
     7    20    21   am
     8    21    22    2
     9    21     1    1
    10     1     2   ar
    11     2     3   ar
    12     3     4   ar
    13     4     5   ar
    14     5     6   ar
    15     6     7    2
    16     6     8   ar
    17     8     9   ar
    18     9    10   ar
    19    10    11   ar
    20    11    12   ar
    21    12    13   ar
    22    13    14   ar
    23    14    15   ar
    24    15    16   ar
    25    16    17   ar
    26    17    18   ar
    27    18    19   ar
    28    19     1   ar
    29    19     5   ar
    30    17     8   ar
    31    16    11   ar
    32    20    23    1
@<TRIPOS>MOLECULE
*****
 29 32 0 0 0
SMALL
GASTEIGER

@<TRIPOS>ATOM
      1 C         142.7961  140.8460  162.4565 C.ar    1  UNL1        0.0878
      2 C         143.8698  141.3506  161.5386 C.ar    1  UNL1        0.0091
      3 C         144.9167  142.2924  162.0552 C.ar    1  UNL1        0.0194
      4 C         144.8899  142.7297  163.4898 C.ar    1  UNL1        0.0844
      5 N         143.8162  142.2252  164.4078 N.ar    1  UNL1       -0.2576
      6 C         143.7895  142.6625  165.8423 C.ar    1  UNL1        0.2672
      7 O         144.8363  143.6043  166.3590 O.2     1  UNL1       -0.2665
      8 C         142.7157  142.1579  166.7603 C.ar    1  UNL1        0.0742
      9 C         142.6890  142.5952  168.1949 C.ar    1  UNL1        0.0063
     10 C         141.6153  142.0907  169.1129 C.ar    1  UNL1        0.0003
     11 C         140.5684  141.1488  168.5962 C.ar    1  UNL1        0.0015
     12 C         139.4947  140.6443  169.5142 C.ar    1  UNL1        0.0000
     13 C         138.4478  139.7025  168.9975 C.ar    1  UNL1        0.0000
     14 C         138.4746  139.2652  167.5629 C.ar    1  UNL1        0.0000
     15 C         139.5483  139.7697  166.6450 C.ar    1  UNL1        0.0015
     16 C         140.5951  140.7115  167.1616 C.ar    1  UNL1        0.0179
     17 C         141.6689  141.2161  166.2437 C.ar    1  UNL1        0.0875
     18 N         141.6956  140.7788  164.8091 N.ar    1  UNL1       -0.2276
     19 C         142.7693  141.2833  163.8911 C.ar    1  UNL1        0.1543
     20 N         141.4142  138.6605  162.7086 N.am    1  UNL1       -0.3007
     21 C         141.7492  139.9042  161.9399 C.2     1  UNL1        0.2488
     22 O         141.0373  140.2061  160.6545 O.2     1  UNL1       -0.2700
     23 H         141.8814  138.4623  163.5522 H       1  UNL1        0.1497
     24 C         140.3672  137.7186  162.1919 C.3     1  UNL1        0.0911
     25 C         138.9658  137.7912  162.7218 C.3     1  UNL1        0.0386
     26 C         137.8504  138.2531  161.8316 C.3     1  UNL1        0.0739
     27 C         137.5806  140.0385  159.9636 C.3     1  UNL1        0.0897
     28 N         137.7737  139.6906  161.4098 N.3     1  UNL1       -0.2703
     29 C         137.8902  140.7800  162.4342 C.3     1  UNL1        0.0897
@<TRIPOS>BOND
     1    27    28    1
     2    28    29    1
     3    28    26    1
     4    26    25    1
     5    25    24    1
     6    24    20    1
     7    20    21   am
     8    21    22    2
     9    21     1    1
    10     1     2   ar
    11     2     3   ar
    12     3     4   ar
    13     4     5   ar
    14     5     6   ar
    15     6     7    2
    16     6     8   ar
    17     8     9   ar
    18     9    10   ar
    19    10    11   ar
    20    11    12   ar
    21    12    13   ar
    22    13    14   ar
    23    14    15   ar
    24    15    16   ar
    25    16    17   ar
    26    17    18   ar
    27    18    19   ar
    28    19     1   ar
    29    19     5   ar
    30    17     8   ar
    31    16    11   ar
    32    20    23    1
@<TRIPOS>MOLECULE
*****
 29 32 0 0 0
SMALL
GASTEIGER

@<TRIPOS>ATOM
      1 C         142.2718  139.5391  166.1890 C.ar    1  UNL1        0.0878
      2 C         143.2638  138.4875  166.5890 C.ar    1  UNL1        0.0091
      3 C         144.5861  138.3978  165.8865 C.ar    1  UNL1        0.0194
      4 C         144.9163  139.3597  164.7839 C.ar    1  UNL1        0.0844
      5 N         143.9244  140.4113  164.3839 N.ar    1  UNL1       -0.2576
      6 C         144.2546  141.3732  163.2813 C.ar    1  UNL1        0.2672
      7 O         145.5768  141.2835  162.5787 O.2     1  UNL1       -0.2665
      8 C         143.2626  142.4248  162.8812 C.ar    1  UNL1        0.0742
      9 C         143.5928  143.3867  161.7787 C.ar    1  UNL1        0.0063
     10 C         142.6009  144.4383  161.3786 C.ar    1  UNL1        0.0003
     11 C         141.2785  144.5281  162.0812 C.ar    1  UNL1        0.0015
     12 C         140.2866  145.5797  161.6812 C.ar    1  UNL1        0.0000
     13 C         138.9643  145.6694  162.3837 C.ar    1  UNL1        0.0000
     14 C         138.6341  144.7075  163.4863 C.ar    1  UNL1        0.0000
     15 C         139.6260  143.6559  163.8863 C.ar    1  UNL1        0.0015
     16 C         140.9483  143.5662  163.1838 C.ar    1  UNL1        0.0179
     17 C         141.9403  142.5145  163.5838 C.ar    1  UNL1        0.0875
     18 N         141.6101  141.5526  164.6864 N.ar    1  UNL1       -0.2276
     19 C         142.6020  140.5010  165.0864 C.ar    1  UNL1        0.1543
     20 N         140.8758  140.1838  168.2831 N.am    1  UNL1       -0.3007
     21 C         140.9495  139.6288  166.8915 C.2     1  UNL1        0.2488
     22 O         139.7010  139.1636  166.2024 O.2     1  UNL1       -0.2700
     23 H         141.6952  140.4891  168.7354 H       1  UNL1        0.1497
     24 C         139.5534  140.2735  168.9857 C.3     1  UNL1        0.0911
     25 C         139.4209  141.0968  170.2325 C.3     1  UNL1        0.0386
     26 C         140.6467  141.6309  170.9124 C.3     1  UNL1        0.0739
     27 C         140.5175  143.9892  169.8300 C.3     1  UNL1        0.0897
     28 N         141.3309  142.8524  170.3741 N.3     1  UNL1       -0.2703
     29 C         142.8284  142.9371  170.3798 C.3     1  UNL1        0.0897
@<TRIPOS>BOND
     1    27    28    1
     2    28    29    1
     3    28    26    1
     4    26    25    1
     5    25    24    1
     6    24    20    1
     7    20    21   am
     8    21    22    2
     9    21     1    1
    10     1     2   ar
    11     2     3   ar
    12     3     4   ar
    13     4     5   ar
    14     5     6   ar
    15     6     7    2
    16     6     8   ar
    17     8     9   ar
    18     9    10   ar
    19    10    11   ar
    20    11    12   ar
    21    12    13   ar
    22    13    14   ar
    23    14    15   ar
    24    15    16   ar
    25    16    17   ar
    26    17    18   ar
    27    18    19   ar
    28    19     1   ar
    29    19     5   ar
    30    17     8   ar
    31    16    11   ar
    32    20    23    1
@<TRIPOS>MOLECULE
*****
 29 32 0 0 0
SMALL
GASTEIGER

@<TRIPOS>ATOM
      1 C         142.6588  143.2892  163.1712 C.ar    1  UNL1        0.0878
      2 C         143.7796  143.8594  162.3533 C.ar    1  UNL1        0.0091
      3 C         144.6911  142.9453  161.5894 C.ar    1  UNL1        0.0194
      4 C         144.4819  141.4609  161.6434 C.ar    1  UNL1        0.0844
      5 N         143.3612  140.8907  162.4612 N.ar    1  UNL1       -0.2576
      6 C         143.1520  139.4063  162.5152 C.ar    1  UNL1        0.2672
      7 O         144.0635  138.4922  161.7513 O.2     1  UNL1       -0.2665
      8 C         142.0313  138.8361  163.3331 C.ar    1  UNL1        0.0742
      9 C         141.8221  137.3517  163.3871 C.ar    1  UNL1        0.0063
     10 C         140.7015  136.7815  164.2049 C.ar    1  UNL1        0.0003
     11 C         139.7899  137.6956  164.9688 C.ar    1  UNL1        0.0015
     12 C         138.6693  137.1254  165.7866 C.ar    1  UNL1        0.0000
     13 C         137.7578  138.0395  166.5505 C.ar    1  UNL1        0.0000
     14 C         137.9670  139.5238  166.4966 C.ar    1  UNL1        0.0000
     15 C         139.0876  140.0941  165.6787 C.ar    1  UNL1        0.0015
     16 C         139.9991  139.1800  164.9149 C.ar    1  UNL1        0.0179
     17 C         141.1198  139.7502  164.0970 C.ar    1  UNL1        0.0875
     18 N         141.3290  141.2346  164.0430 N.ar    1  UNL1       -0.2276
     19 C         142.4497  141.8048  163.2252 C.ar    1  UNL1        0.1543
     20 N         140.6642  143.6308  164.8005 N.am    1  UNL1       -0.3007
     21 C         141.7474  144.2033  163.9351 C.2     1  UNL1        0.2488
     22 O         141.9190  145.6900  163.8335 O.2     1  UNL1       -0.2700
     23 H         140.5515  142.6550  164.8672 H       1  UNL1        0.1497
     24 C         139.7527  144.5450  165.5644 C.3     1  UNL1        0.0911
     25 C         138.3185  144.6917  165.1501 C.3     1  UNL1        0.0386
     26 C         137.5869  143.5257  164.5543 C.3     1  UNL1        0.0739
     27 C         137.6634  141.6478  162.7606 C.3     1  UNL1        0.0897
     28 N         137.9059  143.0731  163.1603 N.3     1  UNL1       -0.2703
     29 C         138.4673  144.0457  162.1659 C.3     1  UNL1        0.0897
@<TRIPOS>BOND
     1    27    28    1
     2    28    29    1
     3    28    26    1
     4    26    25    1
     5    25    24    1
     6    24    20    1
     7    20    21   am
     8    21    22    2
     9    21     1    1
    10     1     2   ar
    11     2     3   ar
    12     3     4   ar
    13     4     5   ar
    14     5     6   ar
    15     6     7    2
    16     6     8   ar
    17     8     9   ar
    18     9    10   ar
    19    10    11   ar
    20    11    12   ar
    21    12    13   ar
    22    13    14   ar
    23    14    15   ar
    24    15    16   ar
    25    16    17   ar
    26    17    18   ar
    27    18    19   ar
    28    19     1   ar
    29    19     5   ar
    30    17     8   ar
    31    16    11   ar
    32    20    23    1
