@<TRIPOS>MOLECULE
*****
 29 32 0 0 0
SMALL
GASTEIGER

@<TRIPOS>ATOM
      1 C         141.2433  141.4870  168.7723 C.2     1  UNL1        0.1571
      2 N         140.6880  141.5564  170.1640 N.2     1  UNL1       -0.1436
      3 N         139.4342  140.7340  170.2042 N.2     1  UNL1       -0.1519
      4 C         139.2146  140.1563  168.8375 C.2     1  UNL1        0.0865
      5 C         138.1410  139.2666  168.2845 C.3     1  UNL1        0.0736
      6 C         138.1855  138.8423  166.8464 C.2     1  UNL1       -0.0197
      7 C         139.3036  139.3077  165.9614 C.2     1  UNL1       -0.0025
      8 C         140.3772  140.1974  166.5144 C.2     1  UNL1        0.0027
      9 C         140.3327  140.6217  167.9524 C.2     1  UNL1        0.0395
     10 C         139.3481  138.8834  164.5233 C.ar    1  UNL1        0.0173
     11 C         140.1515  137.6826  164.1202 C.ar    1  UNL1        0.0986
     12 N         140.1960  137.2583  162.6820 N.ar    1  UNL1       -0.2423
     13 C         139.4370  138.0348  161.6472 C.ar    1  UNL1        0.0986
     14 C         138.6336  139.2357  162.0504 C.ar    1  UNL1        0.0188
     15 C         138.5891  139.6600  163.4884 C.ar    1  UNL1        0.0100
     16 C         137.7857  140.8608  163.8917 C.3     1  UNL1        0.1637
     17 O         136.6205  141.2991  163.0548 O.3     1  UNL1       -0.3772
     18 H         136.9390  141.5999  162.1894 H       1  UNL1        0.2109
     19 O         143.4806  142.7098  169.2712 O.2     1  UNL1       -0.2684
     20 C         142.4902  142.1640  168.2858 C.2     1  UNL1        0.2654
     21 N         142.7469  142.2952  166.8136 N.am    1  UNL1       -0.2996
     22 H         142.0969  141.9370  166.1668 H       1  UNL1        0.1498
     23 C         143.9939  142.9723  166.3271 C.3     1  UNL1        0.0899
     24 C         144.2867  143.0384  164.8575 C.3     1  UNL1        0.0246
     25 C         145.0262  141.9175  164.1891 C.3     1  UNL1        0.0338
     26 C         145.3191  141.9836  162.7193 C.3     1  UNL1        0.1422
     27 O         144.8724  143.1704  161.9182 O.3     1  UNL1       -0.3538
     28 C         144.1329  144.2912  162.5867 C.3     1  UNL1        0.1422
     29 C         143.8400  144.2252  164.0564 C.3     1  UNL1        0.0338
@<TRIPOS>BOND
     1    19    20    2
     2    20    21   am
     3    21    23    1
     4    23    24    1
     5    24    25    1
     6    25    26    1
     7    26    27    1
     8    27    28    1
     9    28    29    1
    10    20     1    1
    11     1     2    2
    12     2     3    1
    13     3     4    2
    14     4     5    1
    15     5     6    1
    16     6     7    2
    17     7    10    1
    18    10    11   ar
    19    11    12   ar
    20    12    13   ar
    21    13    14   ar
    22    14    15   ar
    23    15    16    1
    24    16    17    1
    25     7     8    1
    26     8     9    2
    27    29    24    1
    28     9     1    1
    29     9     4    1
    30    15    10   ar
    31    21    22    1
    32    17    18    1
@<TRIPOS>MOLECULE
*****
 29 32 0 0 0
SMALL
GASTEIGER

@<TRIPOS>ATOM
      1 C         141.2730  141.1019  168.2643 C.2     1  UNL1        0.1571
      2 N         140.9992  140.7872  169.7051 N.2     1  UNL1       -0.1436
      3 N         139.7505  139.9585  169.7694 N.2     1  UNL1       -0.1519
      4 C         139.2526  139.7611  168.3683 C.2     1  UNL1        0.0865
      5 C         138.0639  139.0292  167.8193 C.3     1  UNL1        0.0736
      6 C         137.8162  139.0040  166.3402 C.2     1  UNL1       -0.0197
      7 C         138.7572  139.7106  165.4100 C.2     1  UNL1       -0.0025
      8 C         139.9458  140.4425  165.9589 C.2     1  UNL1        0.0027
      9 C         140.1935  140.4678  167.4381 C.2     1  UNL1        0.0395
     10 C         138.5094  139.6853  163.9307 C.ar    1  UNL1        0.0173
     11 C         137.6670  140.7501  163.2931 C.ar    1  UNL1        0.0986
     12 N         137.4192  140.7248  161.8138 N.ar    1  UNL1       -0.2423
     13 C         138.0139  139.6347  160.9723 C.ar    1  UNL1        0.0986
     14 C         138.8563  138.5700  161.6101 C.ar    1  UNL1        0.0188
     15 C         139.1041  138.5953  163.0892 C.ar    1  UNL1        0.0100
     16 C         139.9465  137.5305  163.7269 C.3     1  UNL1        0.1637
     17 O         141.0439  136.8731  162.9437 O.3     1  UNL1       -0.3772
     18 H         140.6592  136.3611  162.2152 H       1  UNL1        0.2109
     19 O         143.2896  142.6834  168.6906 O.2     1  UNL1       -0.2684
     20 C         142.4241  141.9090  167.7414 C.2     1  UNL1        0.2654
     21 N         142.7098  141.9418  166.2691 N.am    1  UNL1       -0.2996
     22 H         142.1417  141.4335  165.6461 H       1  UNL1        0.1498
     23 C         143.8609  142.7489  165.7463 C.3     1  UNL1        0.0899
     24 C         143.9574  143.0559  164.2812 C.3     1  UNL1        0.0246
     25 C         144.9354  142.3111  163.4218 C.3     1  UNL1        0.0338
     26 C         145.0320  142.6181  161.9566 C.3     1  UNL1        0.1422
     27 O         144.1505  143.6699  161.3510 O.3     1  UNL1       -0.3538
     28 C         143.1724  144.4146  162.2106 C.3     1  UNL1        0.1422
     29 C         143.0759  144.1077  163.6757 C.3     1  UNL1        0.0338
@<TRIPOS>BOND
     1    19    20    2
     2    20    21   am
     3    21    23    1
     4    23    24    1
     5    24    25    1
     6    25    26    1
     7    26    27    1
     8    27    28    1
     9    28    29    1
    10    20     1    1
    11     1     2    2
    12     2     3    1
    13     3     4    2
    14     4     5    1
    15     5     6    1
    16     6     7    2
    17     7    10    1
    18    10    11   ar
    19    11    12   ar
    20    12    13   ar
    21    13    14   ar
    22    14    15   ar
    23    15    16    1
    24    16    17    1
    25     7     8    1
    26     8     9    2
    27    29    24    1
    28     9     1    1
    29     9     4    1
    30    15    10   ar
    31    21    22    1
    32    17    18    1
@<TRIPOS>MOLECULE
*****
 29 32 0 0 0
SMALL
GASTEIGER

@<TRIPOS>ATOM
      1 C         142.1014  140.3056  170.2195 C.2     1  UNL1        0.1571
      2 N         141.7942  140.7882  171.6061 N.2     1  UNL1       -0.1436
      3 N         141.0383  142.0786  171.4909 N.2     1  UNL1       -0.1519
      4 C         140.8783  142.3936  170.0331 C.2     1  UNL1        0.0865
      5 C         140.2192  143.5366  169.3197 C.3     1  UNL1        0.0736
      6 C         140.2171  143.5838  167.8204 C.2     1  UNL1       -0.0197
      7 C         140.8742  142.4880  167.0346 C.2     1  UNL1       -0.0025
      8 C         141.5333  141.3450  167.7481 C.2     1  UNL1        0.0027
      9 C         141.5353  141.2978  169.2473 C.2     1  UNL1        0.0395
     10 C         140.8721  142.5353  165.5353 C.ar    1  UNL1        0.0173
     11 C         141.9251  143.3177  164.8082 C.ar    1  UNL1        0.0986
     12 N         141.9231  143.3650  163.3089 N.ar    1  UNL1       -0.2423
     13 C         140.8679  142.6297  162.5368 C.ar    1  UNL1        0.0986
     14 C         139.8148  141.8472  163.2641 C.ar    1  UNL1        0.0188
     15 C         139.8169  141.8000  164.7633 C.ar    1  UNL1        0.0100
     16 C         138.7639  141.0175  165.4905 C.3     1  UNL1        0.1637
     17 O         137.6303  140.3973  164.7287 O.3     1  UNL1       -0.3772
     18 H         137.0776  141.0962  164.3455 H       1  UNL1        0.2109
     19 O         143.1393  138.7325  168.4312 O.2     1  UNL1       -0.2684
     20 C         142.8443  139.0511  169.8669 C.2     1  UNL1        0.2654
     21 N         143.2921  138.1150  170.9502 N.am    1  UNL1       -0.2996
     22 H         143.0985  138.3241  171.8925 H       1  UNL1        0.1498
     23 C         144.0350  136.8605  170.5976 C.3     1  UNL1        0.0899
     24 C         144.9090  136.1944  171.6186 C.3     1  UNL1        0.0246
     25 C         144.7615  134.7264  171.8888 C.3     1  UNL1        0.0338
     26 C         145.6356  134.0602  172.9098 C.3     1  UNL1        0.1422
     27 O         146.6570  134.8621  173.6606 O.3     1  UNL1       -0.3538
     28 C         146.8044  136.3302  173.3902 C.3     1  UNL1        0.1422
     29 C         145.9304  136.9964  172.3693 C.3     1  UNL1        0.0338
@<TRIPOS>BOND
     1    19    20    2
     2    20    21   am
     3    21    23    1
     4    23    24    1
     5    24    25    1
     6    25    26    1
     7    26    27    1
     8    27    28    1
     9    28    29    1
    10    20     1    1
    11     1     2    2
    12     2     3    1
    13     3     4    2
    14     4     5    1
    15     5     6    1
    16     6     7    2
    17     7    10    1
    18    10    11   ar
    19    11    12   ar
    20    12    13   ar
    21    13    14   ar
    22    14    15   ar
    23    15    16    1
    24    16    17    1
    25     7     8    1
    26     8     9    2
    27    29    24    1
    28     9     1    1
    29     9     4    1
    30    15    10   ar
    31    21    22    1
    32    17    18    1
@<TRIPOS>MOLECULE
*****
 29 32 0 0 0
SMALL
GASTEIGER

@<TRIPOS>ATOM
      1 C         143.8868  141.4000  163.8075 C.2     1  UNL1        0.1571
      2 N         145.0199  140.6781  163.1406 N.2     1  UNL1       -0.1436
      3 N         145.2983  139.4291  163.9232 N.2     1  UNL1       -0.1519
      4 C         144.3373  139.3791  165.0738 C.2     1  UNL1        0.0865
      5 C         144.1439  138.3817  166.1773 C.3     1  UNL1        0.0736
      6 C         143.0781  138.6025  167.2094 C.2     1  UNL1       -0.0197
      7 C         142.2057  139.8206  167.1380 C.2     1  UNL1       -0.0025
      8 C         142.3991  140.8180  166.0344 C.2     1  UNL1        0.0027
      9 C         143.4649  140.5972  165.0023 C.2     1  UNL1        0.0395
     10 C         141.1399  140.0414  168.1702 C.ar    1  UNL1        0.0173
     11 C         139.7181  139.6679  167.8718 C.ar    1  UNL1        0.0986
     12 N         138.6522  139.8887  168.9040 N.ar    1  UNL1       -0.2423
     13 C         139.0082  140.4829  170.2345 C.ar    1  UNL1        0.0986
     14 C         140.4301  140.8563  170.5328 C.ar    1  UNL1        0.0188
     15 C         141.4959  140.6356  169.5006 C.ar    1  UNL1        0.0100
     16 C         142.9177  141.0090  169.7990 C.3     1  UNL1        0.1637
     17 O         143.7466  140.1444  170.7020 O.3     1  UNL1       -0.3772
     18 H         143.3803  140.1699  171.5998 H       1  UNL1        0.2109
     19 O         142.9040  142.8903  161.9199 O.2     1  UNL1       -0.2684
     20 C         143.2817  142.6971  163.3586 C.2     1  UNL1        0.2654
     21 N         143.0543  143.8010  164.3484 N.am    1  UNL1       -0.2996
     22 H         143.3022  143.6743  165.2927 H       1  UNL1        0.1498
     23 C         142.4493  145.0981  163.8995 C.3     1  UNL1        0.0899
     24 C         141.0304  145.1355  163.4143 C.3     1  UNL1        0.0246
     25 C         140.7007  145.8017  162.1114 C.3     1  UNL1        0.0338
     26 C         139.2818  145.8392  161.6262 C.3     1  UNL1        0.1422
     27 O         138.1927  145.2104  162.4438 O.3     1  UNL1       -0.3538
     28 C         138.5225  144.5442  163.7466 C.3     1  UNL1        0.1422
     29 C         139.9413  144.5067  164.2319 C.3     1  UNL1        0.0338
@<TRIPOS>BOND
     1    19    20    2
     2    20    21   am
     3    21    23    1
     4    23    24    1
     5    24    25    1
     6    25    26    1
     7    26    27    1
     8    27    28    1
     9    28    29    1
    10    20     1    1
    11     1     2    2
    12     2     3    1
    13     3     4    2
    14     4     5    1
    15     5     6    1
    16     6     7    2
    17     7    10    1
    18    10    11   ar
    19    11    12   ar
    20    12    13   ar
    21    13    14   ar
    22    14    15   ar
    23    15    16    1
    24    16    17    1
    25     7     8    1
    26     8     9    2
    27    29    24    1
    28     9     1    1
    29     9     4    1
    30    15    10   ar
    31    21    22    1
    32    17    18    1
@<TRIPOS>MOLECULE
*****
 29 32 0 0 0
SMALL
GASTEIGER

@<TRIPOS>ATOM
      1 C         139.6281  139.8494  167.4342 C.2     1  UNL1        0.1571
      2 N         139.3695  139.8390  168.9117 N.2     1  UNL1       -0.1436
      3 N         140.3924  140.7187  169.5673 N.2     1  UNL1       -0.1519
      4 C         141.2831  141.2727  168.4951 C.2     1  UNL1        0.0865
      5 C         142.4632  142.1970  168.5489 C.3     1  UNL1        0.0736
      6 C         143.1710  142.5840  167.2843 C.2     1  UNL1       -0.0197
      7 C         142.6986  142.0468  165.9659 C.2     1  UNL1       -0.0025
      8 C         141.5185  141.1225  165.9121 C.2     1  UNL1        0.0027
      9 C         140.8107  140.7355  167.1767 C.2     1  UNL1        0.0395
     10 C         143.4064  142.4338  164.7013 C.ar    1  UNL1        0.0173
     11 C         144.6391  141.6931  164.2749 C.ar    1  UNL1        0.0986
     12 N         145.3469  142.0802  163.0103 N.ar    1  UNL1       -0.2423
     13 C         144.8220  143.2079  162.1721 C.ar    1  UNL1        0.0986
     14 C         143.5893  143.9487  162.5985 C.ar    1  UNL1        0.0188
     15 C         142.8815  143.5616  163.8631 C.ar    1  UNL1        0.0100
     16 C         141.6488  144.3023  164.2895 C.3     1  UNL1        0.1637
     17 O         141.4608  145.7366  163.8927 O.3     1  UNL1       -0.3772
     18 H         142.1360  146.2828  164.3248 H       1  UNL1        0.2109
     19 O         137.4369  138.6690  166.6891 O.2     1  UNL1       -0.2684
     20 C         138.8420  139.1045  166.3963 C.2     1  UNL1        0.2654
     21 N         139.4612  138.7950  165.0654 N.am    1  UNL1       -0.2996
     22 H         140.3835  139.0808  164.8732 H       1  UNL1        0.1498
     23 C         138.6751  138.0501  164.0276 C.3     1  UNL1        0.0899
     24 C         138.7120  138.4959  162.5959 C.3     1  UNL1        0.0246
     25 C         137.7025  139.4844  162.0920 C.3     1  UNL1        0.0338
     26 C         137.7393  139.9303  160.6602 C.3     1  UNL1        0.1422
     27 O         138.7855  139.3877  159.7324 O.3     1  UNL1       -0.3538
     28 C         139.7950  138.3992  160.2363 C.3     1  UNL1        0.1422
     29 C         139.7582  137.9533  161.6680 C.3     1  UNL1        0.0338
@<TRIPOS>BOND
     1    19    20    2
     2    20    21   am
     3    21    23    1
     4    23    24    1
     5    24    25    1
     6    25    26    1
     7    26    27    1
     8    27    28    1
     9    28    29    1
    10    20     1    1
    11     1     2    2
    12     2     3    1
    13     3     4    2
    14     4     5    1
    15     5     6    1
    16     6     7    2
    17     7    10    1
    18    10    11   ar
    19    11    12   ar
    20    12    13   ar
    21    13    14   ar
    22    14    15   ar
    23    15    16    1
    24    16    17    1
    25     7     8    1
    26     8     9    2
    27    29    24    1
    28     9     1    1
    29     9     4    1
    30    15    10   ar
    31    21    22    1
    32    17    18    1
@<TRIPOS>MOLECULE
*****
 29 32 0 0 0
SMALL
GASTEIGER

@<TRIPOS>ATOM
      1 C         143.9667  141.2082  163.8690 C.2     1  UNL1        0.1571
      2 N         144.6248  140.1233  163.0690 N.2     1  UNL1       -0.1436
      3 N         144.6015  138.8657  163.8863 N.2     1  UNL1       -0.1519
      4 C         143.9290  139.1733  165.1913 C.2     1  UNL1        0.0865
      5 C         143.6233  138.3222  166.3880 C.3     1  UNL1        0.0736
      6 C         142.9252  138.9188  167.5740 C.2     1  UNL1       -0.0197
      7 C         142.5328  140.3666  167.5633 C.2     1  UNL1       -0.0025
      8 C         142.8386  141.2177  166.3667 C.2     1  UNL1        0.0027
      9 C         143.5367  140.6211  165.1807 C.2     1  UNL1        0.0395
     10 C         141.8347  140.9632  168.7494 C.ar    1  UNL1        0.0173
     11 C         142.6191  141.7243  169.7768 C.ar    1  UNL1        0.0986
     12 N         141.9209  142.3209  170.9629 N.ar    1  UNL1       -0.2423
     13 C         140.4384  142.1564  171.1215 C.ar    1  UNL1        0.0986
     14 C         139.6541  141.3953  170.0941 C.ar    1  UNL1        0.0188
     15 C         140.3522  140.7987  168.9081 C.ar    1  UNL1        0.0100
     16 C         139.5679  140.0376  167.8806 C.3     1  UNL1        0.1637
     17 O         138.3713  139.2335  168.2948 O.3     1  UNL1       -0.3772
     18 H         138.6557  138.4979  168.8596 H       1  UNL1        0.2109
     19 O         144.7355  143.2579  162.4699 O.2     1  UNL1       -0.2684
     20 C         143.7726  142.6305  163.4338 C.2     1  UNL1        0.2654
     21 N         142.6155  143.4254  163.9624 N.am    1  UNL1       -0.2996
     22 H         141.9835  143.0136  164.5951 H       1  UNL1        0.1498
     23 C         142.4214  144.8477  163.5272 C.3     1  UNL1        0.0899
     24 C         141.5171  145.1618  162.3724 C.3     1  UNL1        0.0246
     25 C         141.8125  144.5987  161.0139 C.3     1  UNL1        0.0338
     26 C         140.9082  144.9128  159.8590 C.3     1  UNL1        0.1422
     27 O         139.7086  145.7900  160.0627 O.3     1  UNL1       -0.3538
     28 C         139.4133  146.3530  161.4213 C.3     1  UNL1        0.1422
     29 C         140.3175  146.0389  162.5762 C.3     1  UNL1        0.0338
@<TRIPOS>BOND
     1    19    20    2
     2    20    21   am
     3    21    23    1
     4    23    24    1
     5    24    25    1
     6    25    26    1
     7    26    27    1
     8    27    28    1
     9    28    29    1
    10    20     1    1
    11     1     2    2
    12     2     3    1
    13     3     4    2
    14     4     5    1
    15     5     6    1
    16     6     7    2
    17     7    10    1
    18    10    11   ar
    19    11    12   ar
    20    12    13   ar
    21    13    14   ar
    22    14    15   ar
    23    15    16    1
    24    16    17    1
    25     7     8    1
    26     8     9    2
    27    29    24    1
    28     9     1    1
    29     9     4    1
    30    15    10   ar
    31    21    22    1
    32    17    18    1
@<TRIPOS>MOLECULE
*****
 29 32 0 0 0
SMALL
GASTEIGER

@<TRIPOS>ATOM
      1 C         142.2212  140.3502  170.2136 C.2     1  UNL1        0.1571
      2 N         142.1265  140.9667  171.5778 N.2     1  UNL1       -0.1436
      3 N         141.3737  142.2579  171.4516 N.2     1  UNL1       -0.1519
      4 C         141.0031  142.4395  170.0095 C.2     1  UNL1        0.0865
      5 C         140.2564  143.5261  169.2943 C.3     1  UNL1        0.0736
      6 C         140.0334  143.4337  167.8139 C.2     1  UNL1       -0.0197
      7 C         140.5572  142.2546  167.0487 C.2     1  UNL1       -0.0025
      8 C         141.3039  141.1680  167.7639 C.2     1  UNL1        0.0027
      9 C         141.5269  141.2605  169.2444 C.2     1  UNL1        0.0395
     10 C         140.3342  142.1622  165.5682 C.ar    1  UNL1        0.0173
     11 C         139.0579  141.5803  165.0368 C.ar    1  UNL1        0.0986
     12 N         138.8349  141.4879  163.5563 N.ar    1  UNL1       -0.2423
     13 C         139.8883  141.9775  162.6073 C.ar    1  UNL1        0.0986
     14 C         141.1646  142.5595  163.1387 C.ar    1  UNL1        0.0188
     15 C         141.3876  142.6518  164.6191 C.ar    1  UNL1        0.0100
     16 C         142.6639  143.2338  165.1505 C.3     1  UNL1        0.1637
     17 O         143.6916  143.7781  164.2031 O.3     1  UNL1       -0.3772
     18 H         144.0536  143.0544  163.6681 H       1  UNL1        0.2109
     19 O         143.1420  138.6850  168.4447 O.2     1  UNL1       -0.2684
     20 C         142.8923  139.0515  169.8776 C.2     1  UNL1        0.2654
     21 N         143.3138  138.1192  170.9746 N.am    1  UNL1       -0.2996
     22 H         143.1499  138.3597  171.9151 H       1  UNL1        0.1498
     23 C         143.9849  136.8205  170.6386 C.3     1  UNL1        0.0899
     24 C         144.8860  136.1609  171.6400 C.3     1  UNL1        0.0246
     25 C         144.7599  134.6904  171.9081 C.3     1  UNL1        0.0338
     26 C         145.6610  134.0306  172.9096 C.3     1  UNL1        0.1422
     27 O         146.6880  134.8414  173.6430 O.3     1  UNL1       -0.3538
     28 C         146.8140  136.3119  173.3749 C.3     1  UNL1        0.1422
     29 C         145.9130  136.9716  172.3734 C.3     1  UNL1        0.0338
@<TRIPOS>BOND
     1    19    20    2
     2    20    21   am
     3    21    23    1
     4    23    24    1
     5    24    25    1
     6    25    26    1
     7    26    27    1
     8    27    28    1
     9    28    29    1
    10    20     1    1
    11     1     2    2
    12     2     3    1
    13     3     4    2
    14     4     5    1
    15     5     6    1
    16     6     7    2
    17     7    10    1
    18    10    11   ar
    19    11    12   ar
    20    12    13   ar
    21    13    14   ar
    22    14    15   ar
    23    15    16    1
    24    16    17    1
    25     7     8    1
    26     8     9    2
    27    29    24    1
    28     9     1    1
    29     9     4    1
    30    15    10   ar
    31    21    22    1
    32    17    18    1
@<TRIPOS>MOLECULE
*****
 29 32 0 0 0
SMALL
GASTEIGER

@<TRIPOS>ATOM
      1 C         139.6721  139.8140  167.5307 C.2     1  UNL1        0.1571
      2 N         139.4525  139.7500  169.0131 N.2     1  UNL1       -0.1436
      3 N         140.5183  140.5717  169.6755 N.2     1  UNL1       -0.1519
      4 C         141.3968  141.1435  168.6024 C.2     1  UNL1        0.0865
      5 C         142.6053  142.0300  168.6611 C.3     1  UNL1        0.0736
      6 C         143.2908  142.4483  167.3942 C.2     1  UNL1       -0.0197
      7 C         142.7678  141.9800  166.0686 C.2     1  UNL1       -0.0025
      8 C         141.5593  141.0934  166.0099 C.2     1  UNL1        0.0027
      9 C         140.8738  140.6752  167.2768 C.2     1  UNL1        0.0395
     10 C         143.4534  142.3983  164.8016 C.ar    1  UNL1        0.0173
     11 C         143.2457  143.7806  164.2577 C.ar    1  UNL1        0.0986
     12 N         143.9313  144.1989  162.9907 N.ar    1  UNL1       -0.2423
     13 C         144.8245  143.2348  162.2678 C.ar    1  UNL1        0.0986
     14 C         145.0321  141.8524  162.8118 C.ar    1  UNL1        0.0188
     15 C         144.3466  141.4342  164.0787 C.ar    1  UNL1        0.0100
     16 C         144.5542  140.0517  164.6228 C.3     1  UNL1        0.1637
     17 O         143.7873  138.8971  164.0494 O.3     1  UNL1       -0.3772
     18 H         142.8434  139.0078  164.2433 H       1  UNL1        0.2109
     19 O         137.4321  138.7171  166.8035 O.2     1  UNL1       -0.2684
     20 C         138.8368  139.1358  166.4855 C.2     1  UNL1        0.2654
     21 N         139.4064  138.8764  165.1223 N.am    1  UNL1       -0.2996
     22 H         140.3284  139.1512  164.9135 H       1  UNL1        0.1498
     23 C         138.5710  138.1982  164.0771 C.3     1  UNL1        0.0899
     24 C         138.6149  138.6758  162.6559 C.3     1  UNL1        0.0246
     25 C         139.4959  137.9832  161.6588 C.3     1  UNL1        0.0338
     26 C         139.5398  138.4608  160.2375 C.3     1  UNL1        0.1422
     27 O         138.7027  139.6310  159.8133 O.3     1  UNL1       -0.3538
     28 C         137.8217  140.3235  160.8104 C.3     1  UNL1        0.1422
     29 C         137.7778  139.8460  162.2317 C.3     1  UNL1        0.0338
@<TRIPOS>BOND
     1    19    20    2
     2    20    21   am
     3    21    23    1
     4    23    24    1
     5    24    25    1
     6    25    26    1
     7    26    27    1
     8    27    28    1
     9    28    29    1
    10    20     1    1
    11     1     2    2
    12     2     3    1
    13     3     4    2
    14     4     5    1
    15     5     6    1
    16     6     7    2
    17     7    10    1
    18    10    11   ar
    19    11    12   ar
    20    12    13   ar
    21    13    14   ar
    22    14    15   ar
    23    15    16    1
    24    16    17    1
    25     7     8    1
    26     8     9    2
    27    29    24    1
    28     9     1    1
    29     9     4    1
    30    15    10   ar
    31    21    22    1
    32    17    18    1
@<TRIPOS>MOLECULE
*****
 29 32 0 0 0
SMALL
GASTEIGER

@<TRIPOS>ATOM
      1 C         141.7273  138.2200  164.6650 C.2     1  UNL1        0.1571
      2 N         141.5584  136.7966  164.2230 N.2     1  UNL1       -0.1436
      3 N         140.7207  136.7940  162.9788 N.2     1  UNL1       -0.1519
      4 C         140.3718  138.2157  162.6518 C.2     1  UNL1        0.0865
      5 C         139.5681  138.8217  161.5397 C.3     1  UNL1        0.0736
      6 C         139.3865  140.3090  161.4698 C.2     1  UNL1       -0.0197
      7 C         140.0086  141.1903  162.5119 C.2     1  UNL1       -0.0025
      8 C         140.8124  140.5844  163.6240 C.2     1  UNL1        0.0027
      9 C         140.9940  139.0971  163.6939 C.2     1  UNL1        0.0395
     10 C         139.8270  142.6777  162.4420 C.ar    1  UNL1        0.0173
     11 C         140.8172  143.5198  161.6934 C.ar    1  UNL1        0.0986
     12 N         140.6356  145.0072  161.6235 N.ar    1  UNL1       -0.2423
     13 C         139.4637  145.6524  162.3021 C.ar    1  UNL1        0.0986
     14 C         138.4735  144.8102  163.0507 C.ar    1  UNL1        0.0188
     15 C         138.6552  143.3229  163.1206 C.ar    1  UNL1        0.0100
     16 C         137.6650  142.4807  163.8692 C.3     1  UNL1        0.1637
     17 O         136.6994  141.6126  163.1181 O.3     1  UNL1       -0.3772
     18 H         136.0882  142.1711  162.6127 H       1  UNL1        0.2109
     19 O         143.9567  138.3725  165.9904 O.2     1  UNL1       -0.2684
     20 C         142.4948  138.6848  165.8671 C.2     1  UNL1        0.2654
     21 N         141.8003  139.4620  166.9459 N.am    1  UNL1       -0.2996
     22 H         140.8408  139.6670  166.8650 H       1  UNL1        0.1498
     23 C         142.5678  139.9268  168.1480 C.3     1  UNL1        0.0899
     24 C         142.0612  141.0811  168.9609 C.3     1  UNL1        0.0246
     25 C         140.5905  141.2314  169.2146 C.3     1  UNL1        0.0338
     26 C         140.0838  142.3857  170.0276 C.3     1  UNL1        0.1422
     27 O         141.0478  143.3897  170.5869 O.3     1  UNL1       -0.3538
     28 C         142.5185  143.2392  170.3331 C.3     1  UNL1        0.1422
     29 C         143.0252  142.0850  169.5202 C.3     1  UNL1        0.0338
@<TRIPOS>BOND
     1    19    20    2
     2    20    21   am
     3    21    23    1
     4    23    24    1
     5    24    25    1
     6    25    26    1
     7    26    27    1
     8    27    28    1
     9    28    29    1
    10    20     1    1
    11     1     2    2
    12     2     3    1
    13     3     4    2
    14     4     5    1
    15     5     6    1
    16     6     7    2
    17     7    10    1
    18    10    11   ar
    19    11    12   ar
    20    12    13   ar
    21    13    14   ar
    22    14    15   ar
    23    15    16    1
    24    16    17    1
    25     7     8    1
    26     8     9    2
    27    29    24    1
    28     9     1    1
    29     9     4    1
    30    15    10   ar
    31    21    22    1
    32    17    18    1
