@<TRIPOS>MOLECULE
*****
 39 42 0 0 0
SMALL
GASTEIGER

@<TRIPOS>ATOM
      1 C         144.0670  141.3087  160.6117 C.ar    1  UNL1        0.0655
      2 C         143.6486  140.1680  161.4914 C.ar    1  UNL1        0.0337
      3 C         143.1729  138.8839  160.8792 C.ar    1  UNL1        0.0862
      4 C         143.1156  138.7404  159.3872 C.ar    1  UNL1        0.1534
      5 C         143.5340  139.8811  158.5074 C.ar    1  UNL1        0.0539
      6 C         144.0096  141.1652  159.1197 C.ar    1  UNL1        0.0647
      7 C         143.6535  143.3489  162.1661 C.2     1  UNL1        0.2497
      8 O         142.6448  143.0717  162.4845 O.2     1  UNL1       -0.2698
      9 N         144.5426  142.5927  161.2240 N.am    1  UNL1       -0.2794
     10 H         145.4383  142.9392  161.0075 H       1  UNL1        0.1552
     11 C         143.5230  145.1224  164.0603 C.2     1  UNL1        0.0048
     12 C         144.1290  144.6330  162.7784 C.2     1  UNL1        0.0580
     13 N         142.7546  137.7433  161.7590 N.pl3   1  UNL1       -0.2801
     14 H         143.2088  136.8729  161.6858 H       1  UNL1        0.1552
     15 C         141.6444  137.9289  162.7505 C.ar    1  UNL1        0.2208
     16 N         141.4235  136.9096  163.8285 N.ar    1  UNL1       -0.2111
     17 C         140.3133  137.0951  164.8199 C.ar    1  UNL1        0.1147
     18 C         139.4240  138.3000  164.7334 C.ar    1  UNL1        0.0946
     19 CL        138.3138  138.4855  165.7248 Cl      1  UNL1       -0.0790
     20 C         139.6450  139.3193  163.6553 C.ar    1  UNL1        0.0992
     21 N         140.7551  139.1337  162.6639 N.ar    1  UNL1       -0.2126
     22 C         138.7557  140.5242  163.5687 C.ar    1  UNL1        0.0572
     23 C         137.5105  140.6434  162.7408 C.ar    1  UNL1        0.1235
     24 N         136.9408  142.0142  162.9553 N.ar    1  UNL1       -0.1634
     25 N         137.8338  142.7424  163.9157 N.ar    1  UNL1       -0.2281
     26 C         137.7704  144.1249  164.4940 C.ar    1  UNL1        0.1004
     27 C         138.8288  144.5865  165.4514 C.ar    1  UNL1        0.0207
     28 C         139.9505  143.6656  165.8306 C.ar    1  UNL1        0.0031
     29 C         140.0138  142.2831  165.2522 C.ar    1  UNL1        0.0193
     30 C         138.9555  141.8214  164.2948 C.ar    1  UNL1        0.0858
     31 O         142.6400  137.4563  158.7749 O.3     1  UNL1       -0.4701
     32 C         142.4179  137.3686  157.2941 C.3     1  UNL1        0.2525
     33 N         144.4280  142.3057  158.2399 N.pl3   1  UNL1       -0.3033
     34 C         145.3803  142.4161  157.7138 C.3     1  UNL1        0.1123
     35 C         143.4937  143.4562  158.0083 C.3     1  UNL1        0.1082
     36 C         142.0120  143.2248  157.9787 C.3     1  UNL1        0.0938
     37 N         141.1946  143.4387  159.2181 N.3     1  UNL1       -0.2688
     38 C         140.4982  142.2792  159.8667 C.3     1  UNL1        0.0897
     39 C         141.0735  144.8121  159.8089 C.3     1  UNL1        0.0897
@<TRIPOS>BOND
     1    11    12    2
     2    12     7    1
     3     7     8    2
     4     7     9   am
     5     9     1    1
     6     1     2   ar
     7     2     3   ar
     8     3    13    1
     9    13    15    1
    10    15    16   ar
    11    16    17   ar
    12    17    18   ar
    13    18    19    1
    14    18    20   ar
    15    20    22    1
    16    22    23   ar
    17    23    24   ar
    18    24    25   ar
    19    25    26   ar
    20    26    27   ar
    21    27    28   ar
    22    28    29   ar
    23    29    30   ar
    24    20    21   ar
    25     3     4   ar
    26     4    31    1
    27    31    32    1
    28     4     5   ar
    29     5     6   ar
    30     6    33    1
    31    33    34    1
    32    33    35    1
    33    35    36    1
    34    36    37    1
    35    37    38    1
    36    37    39    1
    37     6     1   ar
    38    21    15   ar
    39    30    22   ar
    40    30    25   ar
    41     9    10    1
    42    13    14    1
@<TRIPOS>MOLECULE
*****
 39 42 0 0 0
SMALL
GASTEIGER

@<TRIPOS>ATOM
      1 C         142.8187  138.7476  158.1061 C.ar    1  UNL1        0.0655
      2 C         142.5722  137.9289  159.3386 C.ar    1  UNL1        0.0337
      3 C         143.0923  138.3959  160.6658 C.ar    1  UNL1        0.0862
      4 C         143.8590  139.6817  160.7604 C.ar    1  UNL1        0.1534
      5 C         144.1056  140.5004  159.5279 C.ar    1  UNL1        0.0539
      6 C         143.5854  140.0334  158.2008 C.ar    1  UNL1        0.0647
      7 C         143.1666  137.4454  155.8851 C.2     1  UNL1        0.2497
      8 O         144.1888  137.1123  156.0845 O.2     1  UNL1       -0.2698
      9 N         142.2986  138.2805  156.7790 N.am    1  UNL1       -0.2794
     10 H         141.3875  138.5221  156.4946 H       1  UNL1        0.1552
     11 C         142.6119  135.5129  154.2394 C.2     1  UNL1        0.0048
     12 C         142.6465  136.9783  154.5579 C.2     1  UNL1        0.0580
     13 N         142.8457  137.5772  161.8981 N.pl3   1  UNL1       -0.2801
     14 H         143.4395  136.8224  162.1146 H       1  UNL1        0.1552
     15 C         141.6944  137.9085  162.8008 C.ar    1  UNL1        0.2208
     16 N         141.3416  136.9910  163.9338 N.ar    1  UNL1       -0.2111
     17 C         140.1903  137.3224  164.8364 C.ar    1  UNL1        0.1147
     18 C         139.3919  138.5712  164.6061 C.ar    1  UNL1        0.0946
     19 CL        138.2406  138.9025  165.5088 Cl      1  UNL1       -0.0790
     20 C         139.7448  139.4887  163.4730 C.ar    1  UNL1        0.0992
     21 N         140.8960  139.1573  162.5705 N.ar    1  UNL1       -0.2126
     22 C         138.9464  140.7375  163.2427 C.ar    1  UNL1        0.0572
     23 C         137.9194  140.9419  162.1687 C.ar    1  UNL1        0.1235
     24 N         137.3732  142.3319  162.3082 N.ar    1  UNL1       -0.1634
     25 N         138.0625  142.9866  163.4684 N.ar    1  UNL1       -0.2281
     26 C         137.9305  144.3527  164.0736 C.ar    1  UNL1        0.1004
     27 C         138.7707  144.7334  165.2564 C.ar    1  UNL1        0.0207
     28 C         139.7431  143.7480  165.8339 C.ar    1  UNL1        0.0031
     29 C         139.8751  142.3819  165.2288 C.ar    1  UNL1        0.0193
     30 C         139.0348  142.0012  164.0460 C.ar    1  UNL1        0.0858
     31 O         144.3792  140.1488  162.0876 O.3     1  UNL1       -0.4701
     32 C         144.8546  141.5619  162.2516 C.3     1  UNL1        0.2525
     33 N         143.8321  140.8521  156.9684 N.pl3   1  UNL1       -0.3033
     34 C         143.1827  141.6276  156.5526 C.3     1  UNL1        0.1123
     35 C         145.0821  140.6424  156.1663 C.3     1  UNL1        0.1082
     36 C         146.2294  141.5992  156.3016 C.3     1  UNL1        0.0938
     37 N         147.2895  141.6536  155.2419 N.3     1  UNL1       -0.2688
     38 C         146.9150  141.4994  153.7977 C.3     1  UNL1        0.0897
     39 C         148.7243  141.8622  155.6264 C.3     1  UNL1        0.0897
@<TRIPOS>BOND
     1    11    12    2
     2    12     7    1
     3     7     8    2
     4     7     9   am
     5     9     1    1
     6     1     2   ar
     7     2     3   ar
     8     3    13    1
     9    13    15    1
    10    15    16   ar
    11    16    17   ar
    12    17    18   ar
    13    18    19    1
    14    18    20   ar
    15    20    22    1
    16    22    23   ar
    17    23    24   ar
    18    24    25   ar
    19    25    26   ar
    20    26    27   ar
    21    27    28   ar
    22    28    29   ar
    23    29    30   ar
    24    20    21   ar
    25     3     4   ar
    26     4    31    1
    27    31    32    1
    28     4     5   ar
    29     5     6   ar
    30     6    33    1
    31    33    34    1
    32    33    35    1
    33    35    36    1
    34    36    37    1
    35    37    38    1
    36    37    39    1
    37     6     1   ar
    38    21    15   ar
    39    30    22   ar
    40    30    25   ar
    41     9    10    1
    42    13    14    1
@<TRIPOS>MOLECULE
*****
 39 42 0 0 0
SMALL
GASTEIGER

@<TRIPOS>ATOM
      1 C         140.2679  137.4030  156.9166 C.ar    1  UNL1        0.0655
      2 C         139.9917  138.3280  158.0645 C.ar    1  UNL1        0.0337
      3 C         141.1055  138.7394  158.9812 C.ar    1  UNL1        0.0862
      4 C         142.4956  138.2257  158.7498 C.ar    1  UNL1        0.1534
      5 C         142.7719  137.3005  157.6018 C.ar    1  UNL1        0.0539
      6 C         141.6581  136.8892  156.6852 C.ar    1  UNL1        0.0647
      7 C         138.8591  137.7974  154.7696 C.2     1  UNL1        0.2497
      8 O         139.3793  138.6981  154.4324 O.2     1  UNL1       -0.2698
      9 N         139.1541  136.9916  156.0000 N.am    1  UNL1       -0.2794
     10 H         138.6166  136.1929  156.2059 H       1  UNL1        0.1552
     11 C         136.3900  138.0139  153.9907 C.2     1  UNL1        0.0048
     12 C         137.7453  137.3861  153.8529 C.2     1  UNL1        0.0580
     13 N         140.8291  139.6645  160.1292 N.pl3   1  UNL1       -0.2801
     14 H         140.9530  140.6350  160.0201 H       1  UNL1        0.1552
     15 C         140.3639  139.1109  161.4434 C.ar    1  UNL1        0.2208
     16 N         139.0546  138.3841  161.5298 N.ar    1  UNL1       -0.2111
     17 C         138.5894  137.8305  162.8440 C.ar    1  UNL1        0.1147
     18 C         139.4336  138.0036  164.0718 C.ar    1  UNL1        0.0946
     19 CL        138.9684  137.4500  165.3859 Cl      1  UNL1       -0.0790
     20 C         140.7430  138.7304  163.9853 C.ar    1  UNL1        0.0992
     21 N         141.2081  139.2840  162.6711 N.ar    1  UNL1       -0.2126
     22 C         141.5871  138.9036  165.2131 C.ar    1  UNL1        0.0572
     23 C         142.8204  138.1202  165.5528 C.ar    1  UNL1        0.1235
     24 N         143.3416  138.6230  166.8664 N.ar    1  UNL1       -0.1634
     25 N         142.4306  139.7172  167.3385 N.ar    1  UNL1       -0.2281
     26 C         142.4483  140.5779  168.5668 C.ar    1  UNL1        0.1004
     27 C         141.3816  141.6121  168.7732 C.ar    1  UNL1        0.0207
     28 C         140.2973  141.7855  167.7514 C.ar    1  UNL1        0.0031
     29 C         140.2796  140.9248  166.5231 C.ar    1  UNL1        0.0193
     30 C         141.3462  139.8906  166.3167 C.ar    1  UNL1        0.0858
     31 O         143.6095  138.6370  159.6665 O.3     1  UNL1       -0.4701
     32 C         143.8938  137.8409  160.9055 C.3     1  UNL1        0.2525
     33 N         141.9345  135.9642  155.5372 N.pl3   1  UNL1       -0.3033
     34 C         142.3039  136.2385  154.5452 C.3     1  UNL1        0.1123
     35 C         141.7036  134.4899  155.6896 C.3     1  UNL1        0.1082
     36 C         142.7901  133.5197  155.3318 C.3     1  UNL1        0.0938
     37 N         143.7668  133.0685  156.3770 N.3     1  UNL1       -0.2688
     38 C         143.8165  133.7618  157.7062 C.3     1  UNL1        0.0897
     39 C         144.6938  131.9239  156.0930 C.3     1  UNL1        0.0897
@<TRIPOS>BOND
     1    11    12    2
     2    12     7    1
     3     7     8    2
     4     7     9   am
     5     9     1    1
     6     1     2   ar
     7     2     3   ar
     8     3    13    1
     9    13    15    1
    10    15    16   ar
    11    16    17   ar
    12    17    18   ar
    13    18    19    1
    14    18    20   ar
    15    20    22    1
    16    22    23   ar
    17    23    24   ar
    18    24    25   ar
    19    25    26   ar
    20    26    27   ar
    21    27    28   ar
    22    28    29   ar
    23    29    30   ar
    24    20    21   ar
    25     3     4   ar
    26     4    31    1
    27    31    32    1
    28     4     5   ar
    29     5     6   ar
    30     6    33    1
    31    33    34    1
    32    33    35    1
    33    35    36    1
    34    36    37    1
    35    37    38    1
    36    37    39    1
    37     6     1   ar
    38    21    15   ar
    39    30    22   ar
    40    30    25   ar
    41     9    10    1
    42    13    14    1
@<TRIPOS>MOLECULE
*****
 39 42 0 0 0
SMALL
GASTEIGER

@<TRIPOS>ATOM
      1 C         143.9985  141.0919  160.3855 C.ar    1  UNL1        0.0655
      2 C         143.5485  139.9757  161.2808 C.ar    1  UNL1        0.0337
      3 C         143.0274  138.7009  160.6862 C.ar    1  UNL1        0.0862
      4 C         142.9564  138.5423  159.1963 C.ar    1  UNL1        0.1534
      5 C         143.4064  139.6586  158.3010 C.ar    1  UNL1        0.0539
      6 C         143.9275  140.9334  158.8956 C.ar    1  UNL1        0.0647
      7 C         143.7006  143.1118  161.9920 C.2     1  UNL1        0.2497
      8 O         142.7158  142.8324  162.3764 O.2     1  UNL1       -0.2698
      9 N         144.5195  142.3666  160.9801 N.am    1  UNL1       -0.2794
     10 H         145.3990  142.7142  160.7063 H       1  UNL1        0.1552
     11 C         143.4915  145.0369  163.7243 C.2     1  UNL1        0.0048
     12 C         144.2215  144.3866  162.5867 C.2     1  UNL1        0.0580
     13 N         142.5774  137.5847  161.5816 N.pl3   1  UNL1       -0.2801
     14 H         142.9752  136.6889  161.4894 H       1  UNL1        0.1552
     15 C         141.5213  137.8334  162.6174 C.ar    1  UNL1        0.2208
     16 N         141.3251  136.8559  163.7380 N.ar    1  UNL1       -0.2111
     17 C         140.2690  137.1045  164.7738 C.ar    1  UNL1        0.1147
     18 C         139.4092  138.3307  164.6889 C.ar    1  UNL1        0.0946
     19 CL        138.3532  138.5794  165.7247 Cl      1  UNL1       -0.0790
     20 C         139.6055  139.3083  163.5682 C.ar    1  UNL1        0.0992
     21 N         140.6615  139.0596  162.5325 N.ar    1  UNL1       -0.2126
     22 C         138.7457  140.5345  163.4833 C.ar    1  UNL1        0.0572
     23 C         137.5204  140.6950  162.6332 C.ar    1  UNL1        0.1235
     24 N         136.9777  142.0752  162.8582 N.ar    1  UNL1       -0.1634
     25 N         137.8676  142.7676  163.8474 N.ar    1  UNL1       -0.2281
     26 C         137.8242  144.1422  164.4462 C.ar    1  UNL1        0.1004
     27 C         138.8734  144.5646  165.4314 C.ar    1  UNL1        0.0207
     28 C         139.9661  143.6123  165.8178 C.ar    1  UNL1        0.0031
     29 C         140.0096  142.2378  165.2190 C.ar    1  UNL1        0.0193
     30 C         138.9603  141.8154  164.2338 C.ar    1  UNL1        0.0858
     31 O         142.4353  137.2676  158.6017 O.3     1  UNL1       -0.4701
     32 C         142.4208  137.0855  157.1129 C.3     1  UNL1        0.2525
     33 N         144.3775  142.0495  158.0003 N.pl3   1  UNL1       -0.3033
     34 C         144.0402  143.0895  158.0247 C.3     1  UNL1        0.1123
     35 C         145.3977  141.7892  156.9319 C.3     1  UNL1        0.1082
     36 C         146.7467  142.4406  157.0084 C.3     1  UNL1        0.0938
     37 N         147.5839  142.5791  155.7716 N.3     1  UNL1       -0.2688
     38 C         148.8795  141.8323  155.6553 C.3     1  UNL1        0.0897
     39 C         147.1254  143.4645  154.6508 C.3     1  UNL1        0.0897
@<TRIPOS>BOND
     1    11    12    2
     2    12     7    1
     3     7     8    2
     4     7     9   am
     5     9     1    1
     6     1     2   ar
     7     2     3   ar
     8     3    13    1
     9    13    15    1
    10    15    16   ar
    11    16    17   ar
    12    17    18   ar
    13    18    19    1
    14    18    20   ar
    15    20    22    1
    16    22    23   ar
    17    23    24   ar
    18    24    25   ar
    19    25    26   ar
    20    26    27   ar
    21    27    28   ar
    22    28    29   ar
    23    29    30   ar
    24    20    21   ar
    25     3     4   ar
    26     4    31    1
    27    31    32    1
    28     4     5   ar
    29     5     6   ar
    30     6    33    1
    31    33    34    1
    32    33    35    1
    33    35    36    1
    34    36    37    1
    35    37    38    1
    36    37    39    1
    37     6     1   ar
    38    21    15   ar
    39    30    22   ar
    40    30    25   ar
    41     9    10    1
    42    13    14    1
@<TRIPOS>MOLECULE
*****
 39 42 0 0 0
SMALL
GASTEIGER

@<TRIPOS>ATOM
      1 C         142.8429  138.5657  157.9301 C.ar    1  UNL1        0.0655
      2 C         142.5997  137.7876  159.1892 C.ar    1  UNL1        0.0337
      3 C         143.0944  138.3141  160.5038 C.ar    1  UNL1        0.0862
      4 C         143.8323  139.6189  160.5593 C.ar    1  UNL1        0.1534
      5 C         144.0755  140.3971  159.3001 C.ar    1  UNL1        0.0539
      6 C         143.5808  139.8705  157.9856 C.ar    1  UNL1        0.0647
      7 C         143.2705  137.2613  155.7244 C.2     1  UNL1        0.2497
      8 O         144.3177  137.0127  155.9174 O.2     1  UNL1       -0.2698
      9 N         142.3482  138.0391  156.6156 N.am    1  UNL1       -0.2794
     10 H         141.4182  138.2040  156.3378 H       1  UNL1        0.1552
     11 C         142.1533  135.3721  154.3341 C.2     1  UNL1        0.0048
     12 C         142.7759  136.7347  154.4098 C.2     1  UNL1        0.0580
     13 N         142.8511  137.5359  161.7629 N.pl3   1  UNL1       -0.2801
     14 H         143.4429  136.7857  161.9999 H       1  UNL1        0.1552
     15 C         141.7063  137.9008  162.6608 C.ar    1  UNL1        0.2208
     16 N         141.3356  137.0046  163.8050 N.ar    1  UNL1       -0.2111
     17 C         140.1907  137.3694  164.7029 C.ar    1  UNL1        0.1147
     18 C         139.4167  138.6304  164.4566 C.ar    1  UNL1        0.0946
     19 CL        138.2718  138.9953  165.3545 Cl      1  UNL1       -0.0790
     20 C         139.7875  139.5267  163.3123 C.ar    1  UNL1        0.0992
     21 N         140.9322  139.1618  162.4144 N.ar    1  UNL1       -0.2126
     22 C         139.0134  140.7877  163.0659 C.ar    1  UNL1        0.0572
     23 C         138.0458  141.0234  161.9442 C.ar    1  UNL1        0.1235
     24 N         137.5055  142.4157  162.0831 N.ar    1  UNL1       -0.1634
     25 N         138.1391  143.0406  163.2906 N.ar    1  UNL1       -0.2281
     26 C         137.9879  144.3958  163.9155 C.ar    1  UNL1        0.1004
     27 C         138.7686  144.7448  165.1478 C.ar    1  UNL1        0.0207
     28 C         139.7006  143.7385  165.7552 C.ar    1  UNL1        0.0031
     29 C         139.8518  142.3833  165.1303 C.ar    1  UNL1        0.0193
     30 C         139.0711  142.0344  163.8980 C.ar    1  UNL1        0.0858
     31 O         144.3270  140.1455  161.8738 O.3     1  UNL1       -0.4701
     32 C         143.8091  141.4505  162.4017 C.3     1  UNL1        0.2525
     33 N         143.8241  140.6487  156.7266 N.pl3   1  UNL1       -0.3033
     34 C         144.7101  140.6056  156.0871 C.3     1  UNL1        0.1123
     35 C         142.7866  141.6097  156.2265 C.3     1  UNL1        0.1082
     36 C         141.5604  141.8830  157.0461 C.3     1  UNL1        0.0938
     37 N         141.5735  142.9753  158.0741 N.3     1  UNL1       -0.2688
     38 C         142.8101  143.7997  158.2768 C.3     1  UNL1        0.0897
     39 C         140.3500  143.2432  158.8994 C.3     1  UNL1        0.0897
@<TRIPOS>BOND
     1    11    12    2
     2    12     7    1
     3     7     8    2
     4     7     9   am
     5     9     1    1
     6     1     2   ar
     7     2     3   ar
     8     3    13    1
     9    13    15    1
    10    15    16   ar
    11    16    17   ar
    12    17    18   ar
    13    18    19    1
    14    18    20   ar
    15    20    22    1
    16    22    23   ar
    17    23    24   ar
    18    24    25   ar
    19    25    26   ar
    20    26    27   ar
    21    27    28   ar
    22    28    29   ar
    23    29    30   ar
    24    20    21   ar
    25     3     4   ar
    26     4    31    1
    27    31    32    1
    28     4     5   ar
    29     5     6   ar
    30     6    33    1
    31    33    34    1
    32    33    35    1
    33    35    36    1
    34    36    37    1
    35    37    38    1
    36    37    39    1
    37     6     1   ar
    38    21    15   ar
    39    30    22   ar
    40    30    25   ar
    41     9    10    1
    42    13    14    1
@<TRIPOS>MOLECULE
*****
 39 42 0 0 0
SMALL
GASTEIGER

@<TRIPOS>ATOM
      1 C         140.6013  141.4247  166.3173 C.ar    1  UNL1        0.0655
      2 C         140.1505  142.6806  165.6322 C.ar    1  UNL1        0.0337
      3 C         141.1546  143.5718  164.9630 C.ar    1  UNL1        0.0862
      4 C         142.6095  143.2069  164.9790 C.ar    1  UNL1        0.1534
      5 C         143.0602  141.9509  165.6642 C.ar    1  UNL1        0.0539
      6 C         142.0561  141.0598  166.3333 C.ar    1  UNL1        0.0647
      7 C         138.7939  139.5642  166.1712 C.2     1  UNL1        0.2497
      8 O         138.8464  139.4119  165.0897 O.2     1  UNL1       -0.2698
      9 N         139.5972  140.5337  166.9865 N.am    1  UNL1       -0.2794
     10 H         139.4653  140.5852  167.9608 H       1  UNL1        0.1552
     11 C         137.7662  137.2053  166.5318 C.2     1  UNL1        0.0048
     12 C         137.7897  138.6730  166.8403 C.2     1  UNL1        0.0580
     13 N         140.7038  144.8277  164.2779 N.pl3   1  UNL1       -0.2801
     14 H         140.4949  145.6301  164.8086 H       1  UNL1        0.1552
     15 C         140.5712  144.8610  162.7841 C.ar    1  UNL1        0.2208
     16 N         139.9603  146.0547  162.1119 N.ar    1  UNL1       -0.2111
     17 C         139.8277  146.0880  160.6181 C.ar    1  UNL1        0.1147
     18 C         140.3060  144.9277  159.7966 C.ar    1  UNL1        0.0946
     19 CL        140.1734  144.9611  158.3029 Cl      1  UNL1       -0.0790
     20 C         140.9170  143.7340  160.4689 C.ar    1  UNL1        0.0992
     21 N         141.0496  143.7007  161.9626 N.ar    1  UNL1       -0.2126
     22 C         141.3954  142.5737  159.6474 C.ar    1  UNL1        0.0572
     23 C         142.6672  142.5200  158.8540 C.ar    1  UNL1        0.1235
     24 N         142.7437  141.1765  158.1913 N.ar    1  UNL1       -0.1634
     25 N         141.5191  140.3999  158.5752 N.ar    1  UNL1       -0.2281
     26 C         141.0552  139.0180  158.2216 C.ar    1  UNL1        0.1004
     27 C         139.7580  138.4996  158.7679 C.ar    1  UNL1        0.0207
     28 C         138.9247  139.3631  159.6678 C.ar    1  UNL1        0.0031
     29 C         139.3886  140.7450  160.0214 C.ar    1  UNL1        0.0193
     30 C         140.6858  141.2634  159.4751 C.ar    1  UNL1        0.0858
     31 O         143.6136  144.0980  164.3098 O.3     1  UNL1       -0.4701
     32 C         144.3715  143.6070  163.1122 C.3     1  UNL1        0.2525
     33 N         142.5069  139.8040  167.0185 N.pl3   1  UNL1       -0.3033
     34 C         142.6872  139.6662  168.0883 C.3     1  UNL1        0.1123
     35 C         142.7585  138.5612  166.2170 C.3     1  UNL1        0.1082
     36 C         143.0373  138.6607  164.7466 C.3     1  UNL1        0.0938
     37 N         141.9172  138.5166  163.7594 N.3     1  UNL1       -0.2688
     38 C         141.1576  137.2263  163.6700 C.3     1  UNL1        0.0897
     39 C         141.5567  139.6629  162.8615 C.3     1  UNL1        0.0897
@<TRIPOS>BOND
     1    11    12    2
     2    12     7    1
     3     7     8    2
     4     7     9   am
     5     9     1    1
     6     1     2   ar
     7     2     3   ar
     8     3    13    1
     9    13    15    1
    10    15    16   ar
    11    16    17   ar
    12    17    18   ar
    13    18    19    1
    14    18    20   ar
    15    20    22    1
    16    22    23   ar
    17    23    24   ar
    18    24    25   ar
    19    25    26   ar
    20    26    27   ar
    21    27    28   ar
    22    28    29   ar
    23    29    30   ar
    24    20    21   ar
    25     3     4   ar
    26     4    31    1
    27    31    32    1
    28     4     5   ar
    29     5     6   ar
    30     6    33    1
    31    33    34    1
    32    33    35    1
    33    35    36    1
    34    36    37    1
    35    37    38    1
    36    37    39    1
    37     6     1   ar
    38    21    15   ar
    39    30    22   ar
    40    30    25   ar
    41     9    10    1
    42    13    14    1
@<TRIPOS>MOLECULE
*****
 39 42 0 0 0
SMALL
GASTEIGER

@<TRIPOS>ATOM
      1 C         143.7309  139.6632  159.4028 C.ar    1  UNL1        0.0655
      2 C         144.0220  139.0117  160.7222 C.ar    1  UNL1        0.0337
      3 C         144.4609  139.8450  161.8897 C.ar    1  UNL1        0.0862
      4 C         144.6087  141.3300  161.7377 C.ar    1  UNL1        0.1534
      5 C         144.3176  141.9815  160.4182 C.ar    1  UNL1        0.0539
      6 C         143.8787  141.1481  159.2508 C.ar    1  UNL1        0.0647
      7 C         141.8823  138.3219  158.1644 C.2     1  UNL1        0.2497
      8 O         141.0852  138.4886  158.8941 O.2     1  UNL1       -0.2698
      9 N         143.2919  138.8298  158.2355 N.am    1  UNL1       -0.2794
     10 H         143.9290  138.6161  157.5159 H       1  UNL1        0.1552
     11 C         139.9973  137.4567  156.5998 C.2     1  UNL1        0.0048
     12 C         141.4433  137.4885  156.9971 C.2     1  UNL1        0.0580
     13 N         144.7520  139.1934  163.2090 N.pl3   1  UNL1       -0.2801
     14 H         145.5934  138.6989  163.3387 H       1  UNL1        0.1552
     15 C         143.7613  139.2952  164.3306 C.ar    1  UNL1        0.2208
     16 N         144.1268  138.8064  165.7008 N.ar    1  UNL1       -0.2111
     17 C         143.1361  138.9082  166.8224 C.ar    1  UNL1        0.1147
     18 C         141.7798  139.4989  166.5739 C.ar    1  UNL1        0.0946
     19 CL        140.7891  139.6007  167.6955 Cl      1  UNL1       -0.0790
     20 C         141.4143  139.9878  165.2036 C.ar    1  UNL1        0.0992
     21 N         142.4051  139.8859  164.0821 N.ar    1  UNL1       -0.2126
     22 C         140.0581  140.5785  164.9551 C.ar    1  UNL1        0.0572
     23 C         138.7809  139.8115  164.7805 C.ar    1  UNL1        0.1235
     24 N         137.6745  140.7989  164.5551 N.ar    1  UNL1       -0.1634
     25 N         138.2679  142.1761  164.5903 N.ar    1  UNL1       -0.2281
     26 C         137.6571  143.5366  164.4292 C.ar    1  UNL1        0.1004
     27 C         138.5195  144.7608  164.5153 C.ar    1  UNL1        0.0207
     28 C         139.9927  144.6246  164.7625 C.ar    1  UNL1        0.0031
     29 C         140.6035  143.2641  164.9236 C.ar    1  UNL1        0.0193
     30 C         139.7411  142.0399  164.8375 C.ar    1  UNL1        0.0858
     31 O         145.0476  142.1634  162.9051 O.3     1  UNL1       -0.4701
     32 C         144.2463  143.3639  163.3130 C.3     1  UNL1        0.2525
     33 N         143.5876  141.7997  157.9315 N.pl3   1  UNL1       -0.3033
     34 C         144.2603  141.8766  157.0728 C.3     1  UNL1        0.1123
     35 C         142.2514  142.4364  157.6880 C.3     1  UNL1        0.1082
     36 C         141.0629  142.0208  158.5033 C.3     1  UNL1        0.0938
     37 N         140.6157  142.8636  159.6608 N.3     1  UNL1       -0.2688
     38 C         140.0716  144.2405  159.4201 C.3     1  UNL1        0.0897
     39 C         140.7127  142.3294  161.0591 C.3     1  UNL1        0.0897
@<TRIPOS>BOND
     1    11    12    2
     2    12     7    1
     3     7     8    2
     4     7     9   am
     5     9     1    1
     6     1     2   ar
     7     2     3   ar
     8     3    13    1
     9    13    15    1
    10    15    16   ar
    11    16    17   ar
    12    17    18   ar
    13    18    19    1
    14    18    20   ar
    15    20    22    1
    16    22    23   ar
    17    23    24   ar
    18    24    25   ar
    19    25    26   ar
    20    26    27   ar
    21    27    28   ar
    22    28    29   ar
    23    29    30   ar
    24    20    21   ar
    25     3     4   ar
    26     4    31    1
    27    31    32    1
    28     4     5   ar
    29     5     6   ar
    30     6    33    1
    31    33    34    1
    32    33    35    1
    33    35    36    1
    34    36    37    1
    35    37    38    1
    36    37    39    1
    37     6     1   ar
    38    21    15   ar
    39    30    22   ar
    40    30    25   ar
    41     9    10    1
    42    13    14    1
@<TRIPOS>MOLECULE
*****
 39 42 0 0 0
SMALL
GASTEIGER

@<TRIPOS>ATOM
      1 C         141.4486  139.4874  165.7211 C.ar    1  UNL1        0.0655
      2 C         141.7783  138.6452  164.5244 C.ar    1  UNL1        0.0337
      3 C         142.9200  139.0274  163.6297 C.ar    1  UNL1        0.0862
      4 C         143.7320  140.2520  163.9316 C.ar    1  UNL1        0.1534
      5 C         143.4023  141.0943  165.1283 C.ar    1  UNL1        0.0539
      6 C         142.2606  140.7120  166.0230 C.ar    1  UNL1        0.0647
      7 C         138.8980  139.1791  166.1067 C.2     1  UNL1        0.2497
      8 O         138.5736  139.4934  165.1109 O.2     1  UNL1       -0.2698
      9 N         140.3070  139.1051  166.6157 N.am    1  UNL1       -0.2794
     10 H         140.4824  138.8057  167.5370 H       1  UNL1        0.1552
     11 C         137.3009  137.3692  167.0679 C.2     1  UNL1        0.0048
     12 C         137.7562  138.7968  167.0013 C.2     1  UNL1        0.0580
     13 N         143.2496  138.1852  162.4331 N.pl3   1  UNL1       -0.2801
     14 H         143.8361  137.4004  162.5300 H       1  UNL1        0.1552
     15 C         142.6857  138.5385  161.0888 C.ar    1  UNL1        0.2208
     16 N         142.9138  137.6298  159.9174 N.ar    1  UNL1       -0.2111
     17 C         142.3499  137.9832  158.5731 C.ar    1  UNL1        0.1147
     18 C         141.5579  139.2453  158.4002 C.ar    1  UNL1        0.0946
     19 CL        140.9941  139.5986  157.0559 Cl      1  UNL1       -0.0790
     20 C         141.3299  140.1540  159.5717 C.ar    1  UNL1        0.0992
     21 N         141.8938  139.8006  160.9159 N.ar    1  UNL1       -0.2126
     22 C         140.5379  141.4162  159.3988 C.ar    1  UNL1        0.0572
     23 C         139.0949  141.6081  159.7605 C.ar    1  UNL1        0.1235
     24 N         138.7151  143.0185  159.4191 N.ar    1  UNL1       -0.1634
     25 N         139.9234  143.6982  158.8462 N.ar    1  UNL1       -0.2281
     26 C         140.1434  145.0909  158.3345 C.ar    1  UNL1        0.1004
     27 C         141.4899  145.4933  157.8102 C.ar    1  UNL1        0.0207
     28 C         142.6164  144.5030  157.7976 C.ar    1  UNL1        0.0031
     29 C         142.3965  143.1103  158.3094 C.ar    1  UNL1        0.0193
     30 C         141.0500  142.7079  158.8337 C.ar    1  UNL1        0.0858
     31 O         144.8737  140.6343  163.0369 O.3     1  UNL1       -0.4701
     32 C         145.7930  141.7523  163.4304 C.3     1  UNL1        0.2525
     33 N         141.9310  141.5543  167.2196 N.pl3   1  UNL1       -0.3033
     34 C         142.4184  141.5268  168.1981 C.3     1  UNL1        0.1123
     35 C         140.8261  142.5659  167.1434 C.3     1  UNL1        0.1082
     36 C         140.0026  142.6844  165.8953 C.3     1  UNL1        0.0938
     37 N         140.0351  143.9512  165.0928 N.3     1  UNL1       -0.2688
     38 C         141.2726  144.3258  164.3324 C.3     1  UNL1        0.0897
     39 C         138.8301  144.8435  165.0505 C.3     1  UNL1        0.0897
@<TRIPOS>BOND
     1    11    12    2
     2    12     7    1
     3     7     8    2
     4     7     9   am
     5     9     1    1
     6     1     2   ar
     7     2     3   ar
     8     3    13    1
     9    13    15    1
    10    15    16   ar
    11    16    17   ar
    12    17    18   ar
    13    18    19    1
    14    18    20   ar
    15    20    22    1
    16    22    23   ar
    17    23    24   ar
    18    24    25   ar
    19    25    26   ar
    20    26    27   ar
    21    27    28   ar
    22    28    29   ar
    23    29    30   ar
    24    20    21   ar
    25     3     4   ar
    26     4    31    1
    27    31    32    1
    28     4     5   ar
    29     5     6   ar
    30     6    33    1
    31    33    34    1
    32    33    35    1
    33    35    36    1
    34    36    37    1
    35    37    38    1
    36    37    39    1
    37     6     1   ar
    38    21    15   ar
    39    30    22   ar
    40    30    25   ar
    41     9    10    1
    42    13    14    1
@<TRIPOS>MOLECULE
*****
 39 42 0 0 0
SMALL
GASTEIGER

@<TRIPOS>ATOM
      1 C         140.9796  143.5476  159.7201 C.ar    1  UNL1        0.0655
      2 C         142.1959  143.2669  160.5519 C.ar    1  UNL1        0.0337
      3 C         143.5057  142.9635  159.8868 C.ar    1  UNL1        0.0862
      4 C         143.5993  142.9408  158.3899 C.ar    1  UNL1        0.1534
      5 C         142.3829  143.2215  157.5581 C.ar    1  UNL1        0.0539
      6 C         141.0731  143.5249  158.2232 C.ar    1  UNL1        0.0647
      7 C         139.1418  142.9392  161.4527 C.2     1  UNL1        0.2497
      8 O         139.6131  142.0286  161.8328 O.2     1  UNL1       -0.2698
      9 N         139.6698  143.8511  160.3852 N.am    1  UNL1       -0.2794
     10 H         139.1567  144.6487  160.1211 H       1  UNL1        0.1552
     11 C         137.7940  144.1182  163.3351 C.2     1  UNL1        0.0048
     12 C         137.8320  143.2425  162.1179 C.2     1  UNL1        0.0580
     13 N         144.7219  142.6828  160.7187 N.pl3   1  UNL1       -0.2801
     14 H         145.5783  143.1168  160.5007 H       1  UNL1        0.1552
     15 C         144.6335  141.7408  161.8827 C.ar    1  UNL1        0.2208
     16 N         145.7174  141.7259  162.9195 N.ar    1  UNL1       -0.2111
     17 C         145.6289  140.7840  164.0834 C.ar    1  UNL1        0.1147
     18 C         144.4566  139.8569  164.2106 C.ar    1  UNL1        0.0946
     19 CL        144.3681  138.9149  165.3746 Cl      1  UNL1       -0.0790
     20 C         143.3726  139.8718  163.1737 C.ar    1  UNL1        0.0992
     21 N         143.4612  140.8137  162.0098 N.ar    1  UNL1       -0.2126
     22 C         142.2003  138.9447  163.3009 C.ar    1  UNL1        0.0572
     23 C         141.9869  137.6811  162.5213 C.ar    1  UNL1        0.1235
     24 N         140.6903  137.0740  162.9686 N.ar    1  UNL1       -0.1634
     25 N         140.1023  137.9623  164.0246 N.ar    1  UNL1       -0.2281
     26 C         138.8377  137.8677  164.8257 C.ar    1  UNL1        0.1004
     27 C         138.5064  138.9294  165.8322 C.ar    1  UNL1        0.0207
     28 C         139.4397  140.0856  166.0376 C.ar    1  UNL1        0.0031
     29 C         140.7043  140.1802  165.2365 C.ar    1  UNL1        0.0193
     30 C         141.0356  139.1185  164.2300 C.ar    1  UNL1        0.0858
     31 O         144.9091  142.6373  157.7248 O.3     1  UNL1       -0.4701
     32 C         144.9736  141.6199  156.6245 C.3     1  UNL1        0.2525
     33 N         139.8569  143.8056  157.3914 N.pl3   1  UNL1       -0.3033
     34 C         139.6264  144.7294  156.8535 C.3     1  UNL1        0.1123
     35 C         138.7981  142.7551  157.2325 C.3     1  UNL1        0.1082
     36 C         139.1774  141.3040  157.2189 C.3     1  UNL1        0.0938
     37 N         139.1902  140.5201  158.4977 N.3     1  UNL1       -0.2688
     38 C         140.4806  139.9664  159.0251 C.3     1  UNL1        0.0897
     39 C         137.9125  140.2898  159.2491 C.3     1  UNL1        0.0897
@<TRIPOS>BOND
     1    11    12    2
     2    12     7    1
     3     7     8    2
     4     7     9   am
     5     9     1    1
     6     1     2   ar
     7     2     3   ar
     8     3    13    1
     9    13    15    1
    10    15    16   ar
    11    16    17   ar
    12    17    18   ar
    13    18    19    1
    14    18    20   ar
    15    20    22    1
    16    22    23   ar
    17    23    24   ar
    18    24    25   ar
    19    25    26   ar
    20    26    27   ar
    21    27    28   ar
    22    28    29   ar
    23    29    30   ar
    24    20    21   ar
    25     3     4   ar
    26     4    31    1
    27    31    32    1
    28     4     5   ar
    29     5     6   ar
    30     6    33    1
    31    33    34    1
    32    33    35    1
    33    35    36    1
    34    36    37    1
    35    37    38    1
    36    37    39    1
    37     6     1   ar
    38    21    15   ar
    39    30    22   ar
    40    30    25   ar
    41     9    10    1
    42    13    14    1
