@<TRIPOS>MOLECULE
*****
 33 35 0 0 0
SMALL
GASTEIGER

@<TRIPOS>ATOM
      1 C         143.9330  138.7459  165.9249 C.3     1  UNL1        0.0337
      2 C         142.4500  138.9276  165.7913 C.3     1  UNL1        0.1467
      3 N         142.5795  137.8955  164.7105 N.am    1  UNL1       -0.2806
      4 C         141.2144  137.6472  164.1408 C.2     1  UNL1        0.3106
      5 O         140.8809  136.6886  163.0363 O.2     1  UNL1       -0.2521
      6 N         140.2411  138.5258  164.8694 N.am    1  UNL1       -0.2050
      7 C         141.0048  139.3171  165.8895 C.2     1  UNL1        0.2527
      8 O         140.4250  140.3216  166.8408 O.2     1  UNL1       -0.2723
      9 H         143.4140  137.4580  164.4252 H       1  UNL1        0.1516
     10 C         142.6306  139.9217  166.9000 C.ar    1  UNL1        0.0021
     11 C         142.5585  139.4724  168.3293 C.ar    1  UNL1       -0.0009
     12 C         142.7390  140.4665  169.4380 C.ar    1  UNL1        0.0196
     13 C         142.9917  141.9098  169.1173 C.ar    1  UNL1        0.1217
     14 C         143.0638  142.3591  167.6881 C.ar    1  UNL1        0.0196
     15 C         142.8833  141.3651  166.5794 C.ar    1  UNL1       -0.0009
     16 S         143.1723  142.9039  170.2261 S.O2    1  UNL1        0.0572
     17 N         143.3529  143.8980  171.3348 N.3     1  UNL1       -0.2035
     18 O         141.7015  142.8486  170.5153 O.2     1  UNL1       -0.1532
     19 O         144.6431  142.9592  169.9369 O.2     1  UNL1       -0.1532
     20 H         142.4509  144.0878  171.7715 H       1  UNL1        0.1442
     21 H         143.7362  144.7640  170.9559 H       1  UNL1        0.1442
     22 C         138.7636  138.6000  164.6215 C.3     1  UNL1        0.1715
     23 C         138.2465  139.1848  163.3406 C.2     1  UNL1        0.1964
     24 O         137.8513  138.2823  162.2096 O.2     1  UNL1       -0.2894
     25 C         138.1247  140.6723  163.1908 C.ar    1  UNL1        0.0702
     26 C         138.0095  141.5418  164.4077 C.ar    1  UNL1        0.0082
     27 C         137.8876  143.0293  164.2579 C.ar    1  UNL1        0.0299
     28 C         137.8810  143.6474  162.8912 C.ar    1  UNL1        0.1432
     29 F         137.7591  145.1349  162.7414 F       1  UNL1       -0.2041
     30 C         137.9962  142.7780  161.6743 C.ar    1  UNL1        0.0663
     31 C         138.1181  141.2906  161.8241 C.ar    1  UNL1        0.1386
     32 O         138.2333  140.4211  160.6072 O.3     1  UNL1       -0.5053
     33 H         138.2291  140.8072  159.7534 H       1  UNL1        0.2922
@<TRIPOS>BOND
     1     1     2    1
     2     2    10    1
     3    10    11   ar
     4    11    12   ar
     5    12    13   ar
     6    13    16    1
     7    16    17    1
     8    16    18    2
     9    16    19    2
    10    13    14   ar
    11    14    15   ar
    12     2     3    1
    13     3     4   am
    14     4     5    2
    15     4     6   am
    16     6    22    1
    17    22    23    1
    18    23    24    2
    19    23    25    1
    20    25    26   ar
    21    26    27   ar
    22    27    28   ar
    23    28    29    1
    24    28    30   ar
    25    30    31   ar
    26    31    32    1
    27     6     7   am
    28     7     8    2
    29     7     2    1
    30    15    10   ar
    31    31    25   ar
    32    17    20    1
    33    17    21    1
    34     3     9    1
    35    32    33    1
@<TRIPOS>MOLECULE
*****
 33 35 0 0 0
SMALL
GASTEIGER

@<TRIPOS>ATOM
      1 C         139.2987  138.5086  165.4859 C.3     1  UNL1        0.0337
      2 C         139.1779  140.0036  165.4711 C.3     1  UNL1        0.1467
      3 N         138.2864  139.7626  164.2892 N.am    1  UNL1       -0.2806
      4 C         137.8063  141.0937  163.7917 C.2     1  UNL1        0.3106
      5 O         136.8919  141.3212  162.6246 O.2     1  UNL1       -0.2521
      6 N         138.4010  142.1574  164.6661 N.am    1  UNL1       -0.2050
      7 C         139.2487  141.4837  165.7041 C.2     1  UNL1        0.2527
      8 O         140.0302  142.1697  166.7853 O.2     1  UNL1       -0.2723
      9 H         138.0567  138.8848  163.9070 H       1  UNL1        0.1516
     10 C         140.0947  139.9321  166.6563 C.ar    1  UNL1        0.0021
     11 C         139.5316  139.9964  168.0450 C.ar    1  UNL1       -0.0009
     12 C         140.4484  139.9248  169.2301 C.ar    1  UNL1        0.0196
     13 C         141.9283  139.7890  169.0263 C.ar    1  UNL1        0.1217
     14 C         142.4914  139.7246  167.6375 C.ar    1  UNL1        0.0196
     15 C         141.5746  139.7962  166.4525 C.ar    1  UNL1       -0.0009
     16 S         142.8451  139.7174  170.2114 S.O2    1  UNL1        0.0572
     17 N         143.7619  139.6458  171.3964 N.3     1  UNL1       -0.2035
     18 O         142.6372  141.1818  170.4608 O.2     1  UNL1       -0.1532
     19 O         143.0531  138.2530  169.9620 O.2     1  UNL1       -0.1532
     20 H         143.8364  140.5684  171.8249 H       1  UNL1        0.1442
     21 H         144.6853  139.3360  171.0937 H       1  UNL1        0.1442
     22 C         138.1858  143.6354  164.5270 C.3     1  UNL1        0.1715
     23 C         138.7377  144.3650  163.3382 C.2     1  UNL1        0.1964
     24 O         137.8109  145.0803  162.4005 O.2     1  UNL1       -0.2894
     25 C         140.2165  144.3793  163.0873 C.ar    1  UNL1        0.0702
     26 C         141.1729  144.4174  164.2422 C.ar    1  UNL1        0.0082
     27 C         142.6517  144.4317  163.9912 C.ar    1  UNL1        0.0299
     28 C         143.1741  144.4079  162.5854 C.ar    1  UNL1        0.1432
     29 F         144.6529  144.4222  162.3344 F       1  UNL1       -0.2041
     30 C         142.2177  144.3698  161.4304 C.ar    1  UNL1        0.0663
     31 C         140.7390  144.3555  161.6813 C.ar    1  UNL1        0.1386
     32 O         139.7826  144.3174  160.5264 O.3     1  UNL1       -0.5053
     33 H         140.1089  144.3025  159.6482 H       1  UNL1        0.2922
@<TRIPOS>BOND
     1     1     2    1
     2     2    10    1
     3    10    11   ar
     4    11    12   ar
     5    12    13   ar
     6    13    16    1
     7    16    17    1
     8    16    18    2
     9    16    19    2
    10    13    14   ar
    11    14    15   ar
    12     2     3    1
    13     3     4   am
    14     4     5    2
    15     4     6   am
    16     6    22    1
    17    22    23    1
    18    23    24    2
    19    23    25    1
    20    25    26   ar
    21    26    27   ar
    22    27    28   ar
    23    28    29    1
    24    28    30   ar
    25    30    31   ar
    26    31    32    1
    27     6     7   am
    28     7     8    2
    29     7     2    1
    30    15    10   ar
    31    31    25   ar
    32    17    20    1
    33    17    21    1
    34     3     9    1
    35    32    33    1
@<TRIPOS>MOLECULE
*****
 33 35 0 0 0
SMALL
GASTEIGER

@<TRIPOS>ATOM
      1 C         139.2306  137.5894  165.0228 C.3     1  UNL1        0.0337
      2 C         138.8410  138.9829  164.6274 C.3     1  UNL1        0.1467
      3 N         138.5367  138.3527  163.3007 N.am    1  UNL1       -0.2806
      4 C         138.0397  139.4275  162.3800 C.2     1  UNL1        0.3106
      5 O         137.6194  139.2406  160.9523 O.2     1  UNL1       -0.2521
      6 N         138.0368  140.7221  163.1377 N.am    1  UNL1       -0.2050
      7 C         138.5320  140.4473  164.5266 C.2     1  UNL1        0.2527
      8 O         138.6905  141.4593  165.6225 O.2     1  UNL1       -0.2723
      9 H         138.6443  137.4007  163.0740 H       1  UNL1        0.1516
     10 C         139.2268  139.3219  166.0368 C.ar    1  UNL1        0.0021
     11 C         140.6284  139.7568  166.3468 C.ar    1  UNL1       -0.0009
     12 C         141.0141  140.0957  167.7561 C.ar    1  UNL1        0.0196
     13 C         139.9982  139.9996  168.8555 C.ar    1  UNL1        0.1217
     14 C         138.5965  139.5647  168.5455 C.ar    1  UNL1        0.0196
     15 C         138.2108  139.2258  167.1362 C.ar    1  UNL1       -0.0009
     16 S         140.3839  140.3386  170.2649 S.O2    1  UNL1        0.0572
     17 N         140.7697  140.6775  171.6743 N.3     1  UNL1       -0.2035
     18 O         139.0912  139.7593  170.7581 O.2     1  UNL1       -0.1532
     19 O         141.6767  140.9179  169.7718 O.2     1  UNL1       -0.1532
     20 H         140.0284  140.3829  172.3099 H       1  UNL1        0.1442
     21 H         140.9075  141.6848  171.7562 H       1  UNL1        0.1442
     22 C         137.6130  142.0570  162.6007 C.3     1  UNL1        0.1715
     23 C         138.5558  142.8575  161.7518 C.2     1  UNL1        0.1964
     24 O         138.2927  143.0160  160.2836 O.2     1  UNL1       -0.2894
     25 C         139.7616  143.4995  162.3713 C.ar    1  UNL1        0.0702
     26 C         140.8283  142.6479  162.9935 C.ar    1  UNL1        0.0082
     27 C         142.0341  143.2899  163.6130 C.ar    1  UNL1        0.0299
     28 C         142.1734  144.7834  163.6102 C.ar    1  UNL1        0.1432
     29 F         143.3793  145.4254  164.2297 F       1  UNL1       -0.2041
     30 C         141.1068  145.6349  162.9880 C.ar    1  UNL1        0.0663
     31 C         139.9010  144.9930  162.3685 C.ar    1  UNL1        0.1386
     32 O         138.8343  145.8446  161.7463 O.3     1  UNL1       -0.5053
     33 H         138.9213  146.7775  161.7445 H       1  UNL1        0.2922
@<TRIPOS>BOND
     1     1     2    1
     2     2    10    1
     3    10    11   ar
     4    11    12   ar
     5    12    13   ar
     6    13    16    1
     7    16    17    1
     8    16    18    2
     9    16    19    2
    10    13    14   ar
    11    14    15   ar
    12     2     3    1
    13     3     4   am
    14     4     5    2
    15     4     6   am
    16     6    22    1
    17    22    23    1
    18    23    24    2
    19    23    25    1
    20    25    26   ar
    21    26    27   ar
    22    27    28   ar
    23    28    29    1
    24    28    30   ar
    25    30    31   ar
    26    31    32    1
    27     6     7   am
    28     7     8    2
    29     7     2    1
    30    15    10   ar
    31    31    25   ar
    32    17    20    1
    33    17    21    1
    34     3     9    1
    35    32    33    1
@<TRIPOS>MOLECULE
*****
 33 35 0 0 0
SMALL
GASTEIGER

@<TRIPOS>ATOM
      1 C         138.4089  138.9014  166.3221 C.3     1  UNL1        0.0337
      2 C         138.9656  140.1836  165.7779 C.3     1  UNL1        0.1467
      3 N         137.8682  140.0465  164.7645 N.am    1  UNL1       -0.2806
      4 C         137.9518  141.2165  163.8297 C.2     1  UNL1        0.3106
      5 O         137.0455  141.4800  162.6639 O.2     1  UNL1       -0.2521
      6 N         139.1008  142.0767  164.2652 N.am    1  UNL1       -0.2050
      7 C         139.7274  141.4383  165.4693 C.2     1  UNL1        0.2527
      8 O         140.9084  141.9627  166.2311 O.2     1  UNL1       -0.2723
      9 H         137.2089  139.3167  164.7207 H       1  UNL1        0.1516
     10 C         139.9466  140.0526  166.9051 C.ar    1  UNL1        0.0021
     11 C         139.5401  140.4245  168.3002 C.ar    1  UNL1       -0.0009
     12 C         140.5210  140.2935  169.4274 C.ar    1  UNL1        0.0196
     13 C         141.9086  139.7906  169.1594 C.ar    1  UNL1        0.1217
     14 C         142.3152  139.4187  167.7643 C.ar    1  UNL1        0.0196
     15 C         141.3342  139.5497  166.6372 C.ar    1  UNL1       -0.0009
     16 S         142.8896  139.6596  170.2866 S.O2    1  UNL1        0.0572
     17 N         143.8705  139.5287  171.4138 N.3     1  UNL1       -0.2035
     18 O         143.0427  138.1986  169.9836 O.2     1  UNL1       -0.1532
     19 O         142.7365  141.1207  170.5896 O.2     1  UNL1       -0.1532
     20 H         144.1911  138.5623  171.4750 H       1  UNL1        0.1442
     21 H         143.4195  139.7935  172.2895 H       1  UNL1        0.1442
     22 C         139.5453  143.3515  163.6115 C.3     1  UNL1        0.1715
     23 C         140.5014  143.3083  162.4565 C.2     1  UNL1        0.1964
     24 O         140.0381  143.6985  161.0842 O.2     1  UNL1       -0.2894
     25 C         141.9208  142.8748  162.6738 C.ar    1  UNL1        0.0702
     26 C         142.2227  141.4520  163.0407 C.ar    1  UNL1        0.0082
     27 C         143.6422  141.0186  163.2580 C.ar    1  UNL1        0.0299
     28 C         144.7598  142.0077  163.1084 C.ar    1  UNL1        0.1432
     29 F         146.1792  141.5742  163.3257 F       1  UNL1       -0.2041
     30 C         144.4579  143.4305  162.7414 C.ar    1  UNL1        0.0663
     31 C         143.0385  143.8640  162.5241 C.ar    1  UNL1        0.1386
     32 O         142.7366  145.2868  162.1572 O.3     1  UNL1       -0.5053
     33 H         143.4347  145.9047  162.0637 H       1  UNL1        0.2922
@<TRIPOS>BOND
     1     1     2    1
     2     2    10    1
     3    10    11   ar
     4    11    12   ar
     5    12    13   ar
     6    13    16    1
     7    16    17    1
     8    16    18    2
     9    16    19    2
    10    13    14   ar
    11    14    15   ar
    12     2     3    1
    13     3     4   am
    14     4     5    2
    15     4     6   am
    16     6    22    1
    17    22    23    1
    18    23    24    2
    19    23    25    1
    20    25    26   ar
    21    26    27   ar
    22    27    28   ar
    23    28    29    1
    24    28    30   ar
    25    30    31   ar
    26    31    32    1
    27     6     7   am
    28     7     8    2
    29     7     2    1
    30    15    10   ar
    31    31    25   ar
    32    17    20    1
    33    17    21    1
    34     3     9    1
    35    32    33    1
@<TRIPOS>MOLECULE
*****
 33 35 0 0 0
SMALL
GASTEIGER

@<TRIPOS>ATOM
      1 C         139.1357  137.4795  165.0634 C.3     1  UNL1        0.0337
      2 C         139.5323  138.6533  164.2178 C.3     1  UNL1        0.1467
      3 N         138.6707  137.9966  163.1803 N.am    1  UNL1       -0.2806
      4 C         138.6977  138.8505  161.9474 C.2     1  UNL1        0.3106
      5 O         137.9735  138.5694  160.6642 O.2     1  UNL1       -0.2521
      6 N         139.5759  140.0349  162.2229 N.am    1  UNL1       -0.2050
      7 C         140.0917  139.9130  163.6261 C.2     1  UNL1        0.2527
      8 O         141.0064  140.8809  164.3165 O.2     1  UNL1       -0.2723
      9 H         138.1747  137.1532  163.2893 H       1  UNL1        0.1516
     10 C         140.3110  139.0645  165.4322 C.ar    1  UNL1        0.0021
     11 C         141.7580  138.6899  165.5576 C.ar    1  UNL1       -0.0009
     12 C         142.5366  139.1012  166.7719 C.ar    1  UNL1        0.0196
     13 C         141.8682  139.8870  167.8608 C.ar    1  UNL1        0.1217
     14 C         140.4212  140.2616  167.7354 C.ar    1  UNL1        0.0196
     15 C         139.6426  139.8503  166.5210 C.ar    1  UNL1       -0.0009
     16 S         142.6468  140.2983  169.0752 S.O2    1  UNL1        0.0572
     17 N         143.4255  140.7094  170.2895 N.3     1  UNL1       -0.2035
     18 O         142.2790  141.7309  168.8259 O.2     1  UNL1       -0.1532
     19 O         143.0147  138.8656  169.3244 O.2     1  UNL1       -0.1532
     20 H         143.3661  141.7212  170.4049 H       1  UNL1        0.1442
     21 H         144.4018  140.4369  170.1757 H       1  UNL1        0.1442
     22 C         139.8841  141.1461  161.2636 C.3     1  UNL1        0.1715
     23 C         139.0494  142.3925  161.2665 C.2     1  UNL1        0.1964
     24 O         138.4024  142.8649  159.9984 O.2     1  UNL1       -0.2894
     25 C         138.8619  143.1665  162.5377 C.ar    1  UNL1        0.0702
     26 C         139.8082  144.2769  162.8862 C.ar    1  UNL1        0.0082
     27 C         139.6206  145.0508  164.1574 C.ar    1  UNL1        0.0299
     28 C         138.4868  144.7145  165.0800 C.ar    1  UNL1        0.1432
     29 F         138.2992  145.4885  166.3511 F       1  UNL1       -0.2041
     30 C         137.5405  143.6041  164.7314 C.ar    1  UNL1        0.0663
     31 C         137.7280  142.8301  163.4603 C.ar    1  UNL1        0.1386
     32 O         136.7816  141.7197  163.1117 O.3     1  UNL1       -0.5053
     33 H         136.0733  141.5096  163.6880 H       1  UNL1        0.2922
@<TRIPOS>BOND
     1     1     2    1
     2     2    10    1
     3    10    11   ar
     4    11    12   ar
     5    12    13   ar
     6    13    16    1
     7    16    17    1
     8    16    18    2
     9    16    19    2
    10    13    14   ar
    11    14    15   ar
    12     2     3    1
    13     3     4   am
    14     4     5    2
    15     4     6   am
    16     6    22    1
    17    22    23    1
    18    23    24    2
    19    23    25    1
    20    25    26   ar
    21    26    27   ar
    22    27    28   ar
    23    28    29    1
    24    28    30   ar
    25    30    31   ar
    26    31    32    1
    27     6     7   am
    28     7     8    2
    29     7     2    1
    30    15    10   ar
    31    31    25   ar
    32    17    20    1
    33    17    21    1
    34     3     9    1
    35    32    33    1
@<TRIPOS>MOLECULE
*****
 33 35 0 0 0
SMALL
GASTEIGER

@<TRIPOS>ATOM
      1 C         144.0652  139.7155  164.9228 C.3     1  UNL1        0.0337
      2 C         142.6123  139.3459  164.8725 C.3     1  UNL1        0.1467
      3 N         142.9632  138.7860  163.5259 N.am    1  UNL1       -0.2806
      4 C         141.7173  138.2036  162.9272 C.2     1  UNL1        0.3106
      5 O         141.6109  137.5380  161.5872 O.2     1  UNL1       -0.2521
      6 N         140.5964  138.4035  163.9037 N.am    1  UNL1       -0.2050
      7 C         141.1496  139.1095  165.1060 C.2     1  UNL1        0.2527
      8 O         140.3758  139.5090  166.3274 O.2     1  UNL1       -0.2723
      9 H         143.8546  138.7985  163.1084 H       1  UNL1        0.1516
     10 C         142.5652  139.9831  166.2297 C.ar    1  UNL1        0.0021
     11 C         142.7442  139.1430  167.4593 C.ar    1  UNL1       -0.0009
     12 C         142.6971  139.7802  168.8164 C.ar    1  UNL1        0.0196
     13 C         142.4710  141.2576  168.9438 C.ar    1  UNL1        0.1217
     14 C         142.2920  142.0977  167.7142 C.ar    1  UNL1        0.0196
     15 C         142.3391  141.4605  166.3571 C.ar    1  UNL1       -0.0009
     16 S         142.4239  141.8948  170.3010 S.O2    1  UNL1        0.0572
     17 N         142.3769  142.5320  171.6581 N.3     1  UNL1       -0.2035
     18 O         141.4158  140.8764  170.7443 O.2     1  UNL1       -0.1532
     19 O         143.4320  142.9132  169.8577 O.2     1  UNL1       -0.1532
     20 H         141.7199  142.0235  172.2499 H       1  UNL1        0.1442
     21 H         142.0732  143.5016  171.5681 H       1  UNL1        0.1442
     22 C         139.1724  137.9730  163.7117 C.3     1  UNL1        0.1715
     23 C         138.3022  138.6822  162.7167 C.2     1  UNL1        0.1964
     24 O         137.5815  137.9002  161.6588 O.2     1  UNL1       -0.2894
     25 C         138.1528  140.1734  162.7796 C.ar    1  UNL1        0.0702
     26 C         138.2817  140.9935  161.5303 C.ar    1  UNL1        0.0082
     27 C         138.1323  142.4847  161.5932 C.ar    1  UNL1        0.0299
     28 C         137.8540  143.1559  162.9055 C.ar    1  UNL1        0.1432
     29 F         137.7046  144.6471  162.9684 F       1  UNL1       -0.2041
     30 C         137.7252  142.3358  164.1548 C.ar    1  UNL1        0.0663
     31 C         137.8745  140.8447  164.0919 C.ar    1  UNL1        0.1386
     32 O         137.7457  140.0246  165.3413 O.3     1  UNL1       -0.5053
     33 H         137.5719  140.4438  166.1611 H       1  UNL1        0.2922
@<TRIPOS>BOND
     1     1     2    1
     2     2    10    1
     3    10    11   ar
     4    11    12   ar
     5    12    13   ar
     6    13    16    1
     7    16    17    1
     8    16    18    2
     9    16    19    2
    10    13    14   ar
    11    14    15   ar
    12     2     3    1
    13     3     4   am
    14     4     5    2
    15     4     6   am
    16     6    22    1
    17    22    23    1
    18    23    24    2
    19    23    25    1
    20    25    26   ar
    21    26    27   ar
    22    27    28   ar
    23    28    29    1
    24    28    30   ar
    25    30    31   ar
    26    31    32    1
    27     6     7   am
    28     7     8    2
    29     7     2    1
    30    15    10   ar
    31    31    25   ar
    32    17    20    1
    33    17    21    1
    34     3     9    1
    35    32    33    1
@<TRIPOS>MOLECULE
*****
 33 35 0 0 0
SMALL
GASTEIGER

@<TRIPOS>ATOM
      1 C         139.8482  139.1011  166.5916 C.3     1  UNL1        0.0337
      2 C         141.0831  139.2555  165.7543 C.3     1  UNL1        0.1467
      3 N         140.3859  138.3010  164.8308 N.am    1  UNL1       -0.2806
      4 C         141.2818  138.0582  163.6525 C.2     1  UNL1        0.3106
      5 O         140.9798  137.1674  162.4841 O.2     1  UNL1       -0.2521
      6 N         142.5327  138.8627  163.8477 N.am    1  UNL1       -0.2050
      7 C         142.4099  139.6026  165.1467 C.2     1  UNL1        0.2527
      8 O         143.4341  140.5274  165.7348 O.2     1  UNL1       -0.2723
      9 H         139.4965  137.9036  164.9731 H       1  UNL1        0.1516
     10 C         141.5222  140.1777  166.8529 C.ar    1  UNL1        0.0021
     11 C         141.1240  141.6236  166.8223 C.ar    1  UNL1       -0.0009
     12 C         141.5630  142.5458  167.9208 C.ar    1  UNL1        0.0196
     13 C         142.4002  142.0221  169.0499 C.ar    1  UNL1        0.1217
     14 C         142.7983  140.5763  169.0805 C.ar    1  UNL1        0.0196
     15 C         142.3593  139.6541  167.9820 C.ar    1  UNL1       -0.0009
     16 S         142.8392  142.9444  170.1485 S.O2    1  UNL1        0.0572
     17 N         143.2781  143.8666  171.2470 N.3     1  UNL1       -0.2035
     18 O         144.2712  142.7273  169.7586 O.2     1  UNL1       -0.1532
     19 O         141.4071  143.1615  170.5384 O.2     1  UNL1       -0.1532
     20 H         144.2957  143.9364  171.2460 H       1  UNL1        0.1442
     21 H         142.9634  143.4996  172.1451 H       1  UNL1        0.1442
     22 C         143.7012  138.9175  162.9088 C.3     1  UNL1        0.1715
     23 C         143.7953  140.0164  161.8921 C.2     1  UNL1        0.1964
     24 O         144.2022  139.7018  160.4830 O.2     1  UNL1       -0.2894
     25 C         143.4826  141.4300  162.2846 C.ar    1  UNL1        0.0702
     26 C         142.0602  141.9058  162.3038 C.ar    1  UNL1        0.0082
     27 C         141.7475  143.3194  162.6963 C.ar    1  UNL1        0.0299
     28 C         142.8571  144.2572  163.0695 C.ar    1  UNL1        0.1432
     29 F         142.5444  145.6707  163.4619 F       1  UNL1       -0.2041
     30 C         144.2795  143.7813  163.0502 C.ar    1  UNL1        0.0663
     31 C         144.5923  142.3679  162.6578 C.ar    1  UNL1        0.1386
     32 O         146.0147  141.8920  162.6385 O.3     1  UNL1       -0.5053
     33 H         146.7078  142.4778  162.8716 H       1  UNL1        0.2922
@<TRIPOS>BOND
     1     1     2    1
     2     2    10    1
     3    10    11   ar
     4    11    12   ar
     5    12    13   ar
     6    13    16    1
     7    16    17    1
     8    16    18    2
     9    16    19    2
    10    13    14   ar
    11    14    15   ar
    12     2     3    1
    13     3     4   am
    14     4     5    2
    15     4     6   am
    16     6    22    1
    17    22    23    1
    18    23    24    2
    19    23    25    1
    20    25    26   ar
    21    26    27   ar
    22    27    28   ar
    23    28    29    1
    24    28    30   ar
    25    30    31   ar
    26    31    32    1
    27     6     7   am
    28     7     8    2
    29     7     2    1
    30    15    10   ar
    31    31    25   ar
    32    17    20    1
    33    17    21    1
    34     3     9    1
    35    32    33    1
@<TRIPOS>MOLECULE
*****
 33 35 0 0 0
SMALL
GASTEIGER

@<TRIPOS>ATOM
      1 C         137.7437  143.0655  164.5286 C.3     1  UNL1        0.0337
      2 C         138.9302  142.5230  163.7884 C.3     1  UNL1        0.1467
      3 N         138.3301  143.2425  162.6169 N.am    1  UNL1       -0.2806
      4 C         139.2194  143.0179  161.4301 C.2     1  UNL1        0.3106
      5 O         138.9979  143.5570  160.0479 O.2     1  UNL1       -0.2521
      6 N         140.3690  142.1597  161.8679 N.am    1  UNL1       -0.2050
      7 C         140.1902  141.8538  163.3255 C.2     1  UNL1        0.2527
      8 O         141.1101  141.0243  164.1716 O.2     1  UNL1       -0.2723
      9 H         137.4987  143.7695  162.6256 H       1  UNL1        0.1516
     10 C         139.2821  141.9169  165.1146 C.ar    1  UNL1        0.0021
     11 C         140.1174  142.6877  166.0935 C.ar    1  UNL1       -0.0009
     12 C         140.4693  142.0816  167.4197 C.ar    1  UNL1        0.0196
     13 C         139.9859  140.7047  167.7670 C.ar    1  UNL1        0.1217
     14 C         139.1507  139.9339  166.7881 C.ar    1  UNL1        0.0196
     15 C         138.7988  140.5400  165.4619 C.ar    1  UNL1       -0.0009
     16 S         140.3379  140.0986  169.0932 S.O2    1  UNL1        0.0572
     17 N         140.6898  139.4926  170.4194 N.3     1  UNL1       -0.2035
     18 O         141.7907  140.3606  168.8274 O.2     1  UNL1       -0.1532
     19 O         138.8851  139.8367  169.3590 O.2     1  UNL1       -0.1532
     20 H         141.7010  139.5231  170.5496 H       1  UNL1        0.1442
     21 H         140.3728  138.5234  170.4452 H       1  UNL1        0.1442
     22 C         141.4990  141.6898  161.0005 C.3     1  UNL1        0.1715
     23 C         142.8025  142.4321  160.9996 C.2     1  UNL1        0.1964
     24 O         143.4935  142.7328  159.7027 O.2     1  UNL1       -0.2894
     25 C         143.4149  142.8737  162.2957 C.ar    1  UNL1        0.0702
     26 C         144.2518  141.9184  163.0938 C.ar    1  UNL1        0.0082
     27 C         144.8642  142.3600  164.3899 C.ar    1  UNL1        0.0299
     28 C         144.6398  143.7569  164.8880 C.ar    1  UNL1        0.1432
     29 F         145.2522  144.1985  166.1841 F       1  UNL1       -0.2041
     30 C         143.8029  144.7123  164.0899 C.ar    1  UNL1        0.0663
     31 C         143.1905  144.2707  162.7938 C.ar    1  UNL1        0.1386
     32 O         142.3536  145.2261  161.9958 O.3     1  UNL1       -0.5053
     33 H         142.2134  146.0988  162.3069 H       1  UNL1        0.2922
@<TRIPOS>BOND
     1     1     2    1
     2     2    10    1
     3    10    11   ar
     4    11    12   ar
     5    12    13   ar
     6    13    16    1
     7    16    17    1
     8    16    18    2
     9    16    19    2
    10    13    14   ar
    11    14    15   ar
    12     2     3    1
    13     3     4   am
    14     4     5    2
    15     4     6   am
    16     6    22    1
    17    22    23    1
    18    23    24    2
    19    23    25    1
    20    25    26   ar
    21    26    27   ar
    22    27    28   ar
    23    28    29    1
    24    28    30   ar
    25    30    31   ar
    26    31    32    1
    27     6     7   am
    28     7     8    2
    29     7     2    1
    30    15    10   ar
    31    31    25   ar
    32    17    20    1
    33    17    21    1
    34     3     9    1
    35    32    33    1
@<TRIPOS>MOLECULE
*****
 33 35 0 0 0
SMALL
GASTEIGER

@<TRIPOS>ATOM
      1 C         143.7282  143.6339  165.5934 C.3     1  UNL1        0.0337
      2 C         143.3962  142.1815  165.4191 C.3     1  UNL1        0.1467
      3 N         144.3242  142.2723  164.2441 N.am    1  UNL1       -0.2806
      4 C         144.3862  140.9206  163.5969 C.2     1  UNL1        0.3106
      5 O         145.1957  140.5586  162.3872 O.2     1  UNL1       -0.2521
      6 N         143.4965  139.9943  164.3719 N.am    1  UNL1       -0.2050
      7 C         142.8847  140.7736  165.4980 C.2     1  UNL1        0.2527
      8 O         141.9290  140.2389  166.5232 O.2     1  UNL1       -0.2723
      9 H         144.8077  143.0777  163.9495 H       1  UNL1        0.1516
     10 C         142.5376  142.3944  166.6305 C.ar    1  UNL1        0.0021
     11 C         141.0791  142.7063  166.4707 C.ar    1  UNL1       -0.0009
     12 C         140.2206  142.9191  167.6821 C.ar    1  UNL1        0.0196
     13 C         140.8205  142.8201  169.0534 C.ar    1  UNL1        0.1217
     14 C         142.2790  142.5082  169.2132 C.ar    1  UNL1        0.0196
     15 C         143.1375  142.2953  168.0018 C.ar    1  UNL1       -0.0009
     16 S         139.9619  143.0330  170.2648 S.O2    1  UNL1        0.0572
     17 N         139.1033  143.2459  171.4762 N.3     1  UNL1       -0.2035
     18 O         139.6761  141.5616  170.3209 O.2     1  UNL1       -0.1532
     19 O         140.2477  144.5044  170.2088 O.2     1  UNL1       -0.1532
     20 H         138.7255  142.3508  171.7867 H       1  UNL1        0.1442
     21 H         138.3361  143.8762  171.2427 H       1  UNL1        0.1442
     22 C         143.2602  138.5435  164.0731 C.3     1  UNL1        0.1715
     23 C         142.7782  138.1262  162.7153 C.2     1  UNL1        0.1964
     24 O         143.7654  137.7265  161.6590 O.2     1  UNL1       -0.2894
     25 C         141.3090  138.1087  162.4137 C.ar    1  UNL1        0.0702
     26 C         140.3349  137.6451  163.4560 C.ar    1  UNL1        0.0082
     27 C         138.8656  137.6276  163.1545 C.ar    1  UNL1        0.0299
     28 C         138.3704  138.0736  161.8107 C.ar    1  UNL1        0.1432
     29 F         136.9011  138.0561  161.5092 F       1  UNL1       -0.2041
     30 C         139.3444  138.5372  160.7685 C.ar    1  UNL1        0.0663
     31 C         140.8136  138.5548  161.0699 C.ar    1  UNL1        0.1386
     32 O         141.7877  139.0184  160.0277 O.3     1  UNL1       -0.5053
     33 H         141.4784  139.2970  159.1882 H       1  UNL1        0.2922
@<TRIPOS>BOND
     1     1     2    1
     2     2    10    1
     3    10    11   ar
     4    11    12   ar
     5    12    13   ar
     6    13    16    1
     7    16    17    1
     8    16    18    2
     9    16    19    2
    10    13    14   ar
    11    14    15   ar
    12     2     3    1
    13     3     4   am
    14     4     5    2
    15     4     6   am
    16     6    22    1
    17    22    23    1
    18    23    24    2
    19    23    25    1
    20    25    26   ar
    21    26    27   ar
    22    27    28   ar
    23    28    29    1
    24    28    30   ar
    25    30    31   ar
    26    31    32    1
    27     6     7   am
    28     7     8    2
    29     7     2    1
    30    15    10   ar
    31    31    25   ar
    32    17    20    1
    33    17    21    1
    34     3     9    1
    35    32    33    1
