@<TRIPOS>MOLECULE
*****
 41 47 0 0 0
SMALL
GASTEIGER

@<TRIPOS>ATOM
      1 C         140.0892  141.8313  161.0683 C.3     1  UNL1        0.1707
      2 N         140.8077  141.1946  159.9158 N.3     1  UNL1       -0.2797
      3 C         141.0907  139.7216  159.9300 C.3     1  UNL1        0.1167
      4 C         140.6553  138.8853  161.0966 C.3     1  UNL1        0.0511
      5 C         139.9368  139.5220  162.2491 C.2     1  UNL1       -0.0037
      6 C         139.6537  140.9950  162.2350 C.2     1  UNL1        0.0800
      7 N         138.9326  141.3406  163.5041 N.2     1  UNL1       -0.2519
      8 C         138.7700  140.0813  164.3026 C.2     1  UNL1        0.0627
      9 C         138.1371  139.8127  165.6356 C.3     1  UNL1        0.0717
     10 C         138.1247  138.4203  166.1931 C.2     1  UNL1       -0.0198
     11 C         138.7453  137.2963  165.4176 C.2     1  UNL1       -0.0042
     12 C         139.3783  137.5648  164.0845 C.2     1  UNL1        0.0006
     13 C         139.3907  138.9573  163.5270 C.2     1  UNL1        0.0111
     14 H         141.7081  141.6666  159.8331 H       1  UNL1        0.1246
     15 C         139.4440  142.8856  161.9182 C.ar    1  UNL1        0.2494
     16 N         138.1008  143.5094  161.6809 N.ar    1  UNL1       -0.1082
     17 N         137.8556  144.5105  162.7707 N.ar    1  UNL1       -0.0928
     18 C         139.0473  144.5054  163.6815 C.ar    1  UNL1        0.3052
     19 N         139.2259  145.3553  164.9046 N.pl3   1  UNL1       -0.3115
     20 O         140.0291  143.5011  163.1547 O.2     1  UNL1       -0.4068
     21 H         138.5210  145.9888  165.1710 H       1  UNL1        0.1467
     22 H         140.0481  145.2796  165.4408 H       1  UNL1        0.1467
     23 C         139.7554  145.2449  157.0538 C.3     1  UNL1        0.1537
     24 N         140.1472  144.6028  158.3516 N.ar    1  UNL1       -0.2476
     25 C         139.6502  143.2853  158.8687 C.ar    1  UNL1        0.0945
     26 C         140.3005  143.0337  160.1968 C.ar    1  UNL1        0.0439
     27 C         141.1994  144.1956  160.5004 C.ar    1  UNL1        0.1194
     28 N         141.1045  145.1653  159.3599 N.ar    1  UNL1       -0.1679
     29 C         141.8093  139.0848  158.7774 C.ar    1  UNL1        0.1319
     30 N         141.6802  137.6562  158.3388 N.ar    1  UNL1       -0.2282
     31 C         142.5742  137.4533  157.1515 C.ar    1  UNL1        0.1171
     32 C         143.2557  138.7565  156.8563 C.ar    1  UNL1        0.0942
     33 N         142.7830  139.7648  157.8612 N.ar    1  UNL1       -0.3385
     34 H         143.0627  140.7074  157.9107 H       1  UNL1        0.1672
     35 C         142.7548  136.1720  156.3926 C.ar    1  UNL1        0.1006
     36 C         142.3944  136.1047  154.9381 C.ar    1  UNL1        0.0230
     37 C         142.5750  134.8235  154.1792 C.ar    1  UNL1        0.0328
     38 C         143.1161  133.6097  154.8748 C.ar    1  UNL1        0.1592
     39 F         143.2967  132.3285  154.1159 F       1  UNL1       -0.2025
     40 C         143.4765  133.6771  156.3293 C.ar    1  UNL1        0.1284
     41 N         143.2959  134.9582  157.0882 N.ar    1  UNL1       -0.2399
@<TRIPOS>BOND
     1    23    24    1
     2    24    25   ar
     3    25    26   ar
     4     1    26    1
     5     1    15    1
     6    15    16   ar
     7    16    17   ar
     8    17    18   ar
     9    18    19    1
    10    18    20   ar
    11     1     2    1
    12     2     3    1
    13     3    29    1
    14    29    30   ar
    15    30    31   ar
    16    31    35    1
    17    35    36   ar
    18    36    37   ar
    19    37    38   ar
    20    38    39    1
    21    38    40   ar
    22    40    41   ar
    23    31    32   ar
    24    32    33   ar
    25     3     4    1
    26     4     5    1
    27     5     6    2
    28     6     7    1
    29     7     8    2
    30     8     9    1
    31     9    10    1
    32    10    11    2
    33    11    12    1
    34    12    13    2
    35    26    27   ar
    36    27    28   ar
    37    28    24   ar
    38     6     1    1
    39    13     8    1
    40    20    15   ar
    41    33    29   ar
    42    13     5    1
    43    41    35   ar
    44    19    21    1
    45    19    22    1
    46     2    14    1
    47    33    34    1
@<TRIPOS>MOLECULE
*****
 41 47 0 0 0
SMALL
GASTEIGER

@<TRIPOS>ATOM
      1 C         139.7702  141.6104  160.3605 C.3     1  UNL1        0.1707
      2 N         140.1980  140.8411  159.1460 N.3     1  UNL1       -0.2797
      3 C         140.3074  139.3463  159.2051 C.3     1  UNL1        0.1167
      4 C         139.9889  138.6207  160.4787 C.3     1  UNL1        0.0511
      5 C         139.5611  139.3900  161.6933 C.2     1  UNL1       -0.0037
      6 C         139.4517  140.8848  161.6342 C.2     1  UNL1        0.0800
      7 N         139.0081  141.3707  162.9822 N.2     1  UNL1       -0.2519
      8 C         138.8434  140.1762  163.8744 C.2     1  UNL1        0.0627
      9 C         138.4263  140.0450  165.3092 C.3     1  UNL1        0.0717
     10 C         138.3510  138.6897  165.9474 C.2     1  UNL1       -0.0198
     11 C         138.6927  137.4655  165.1508 C.2     1  UNL1       -0.0042
     12 C         139.1098  137.5967  163.7160 C.2     1  UNL1        0.0006
     13 C         139.1851  138.9520  163.0778 C.2     1  UNL1        0.0111
     14 H         141.1185  141.1936  158.8833 H       1  UNL1        0.1246
     15 C         139.4094  142.7717  161.2388 C.ar    1  UNL1        0.2494
     16 N         138.0708  143.4452  161.3042 N.ar    1  UNL1       -0.1082
     17 N         138.1581  144.5532  162.3117 N.ar    1  UNL1       -0.0928
     18 C         139.5507  144.5643  162.8689 C.ar    1  UNL1        0.3052
     19 N         140.0775  145.5104  163.9069 N.pl3   1  UNL1       -0.3115
     20 O         140.3241  143.4633  162.2058 O.2     1  UNL1       -0.4068
     21 H         139.4894  146.2037  164.2848 H       1  UNL1        0.1467
     22 H         141.0112  145.4380  164.2104 H       1  UNL1        0.1467
     23 C         141.8138  145.7883  157.8606 C.3     1  UNL1        0.1537
     24 N         140.9027  144.6597  158.2428 N.ar    1  UNL1       -0.2476
     25 C         141.1159  143.6992  159.3752 C.ar    1  UNL1        0.0945
     26 C         139.9633  142.7393  159.3919 C.ar    1  UNL1        0.0439
     27 C         139.0379  143.1065  158.2700 C.ar    1  UNL1        0.1194
     28 N         139.6184  144.2934  157.5598 N.ar    1  UNL1       -0.1679
     29 C         140.7352  138.5770  157.9905 C.ar    1  UNL1        0.1319
     30 N         141.3329  137.2012  157.9836 N.ar    1  UNL1       -0.2282
     31 C         141.6076  136.8223  156.5585 C.ar    1  UNL1        0.1171
     32 C         141.1797  137.9639  155.6846 C.ar    1  UNL1        0.0942
     33 N         140.6406  139.0484  156.5696 N.ar    1  UNL1       -0.3385
     34 H         140.2867  139.9170  156.2705 H       1  UNL1        0.1672
     35 C         142.2052  135.5289  156.0895 C.ar    1  UNL1        0.1006
     36 C         141.7185  134.8943  154.8205 C.ar    1  UNL1        0.0230
     37 C         142.3161  133.6009  154.3516 C.ar    1  UNL1        0.0328
     38 C         143.4004  132.9420  155.1517 C.ar    1  UNL1        0.1592
     39 F         143.9981  131.6486  154.6828 F       1  UNL1       -0.2025
     40 C         143.8871  133.5766  156.4207 C.ar    1  UNL1        0.1284
     41 N         143.2895  134.8700  156.8896 N.ar    1  UNL1       -0.2399
@<TRIPOS>BOND
     1    23    24    1
     2    24    25   ar
     3    25    26   ar
     4     1    26    1
     5     1    15    1
     6    15    16   ar
     7    16    17   ar
     8    17    18   ar
     9    18    19    1
    10    18    20   ar
    11     1     2    1
    12     2     3    1
    13     3    29    1
    14    29    30   ar
    15    30    31   ar
    16    31    35    1
    17    35    36   ar
    18    36    37   ar
    19    37    38   ar
    20    38    39    1
    21    38    40   ar
    22    40    41   ar
    23    31    32   ar
    24    32    33   ar
    25     3     4    1
    26     4     5    1
    27     5     6    2
    28     6     7    1
    29     7     8    2
    30     8     9    1
    31     9    10    1
    32    10    11    2
    33    11    12    1
    34    12    13    2
    35    26    27   ar
    36    27    28   ar
    37    28    24   ar
    38     6     1    1
    39    13     8    1
    40    20    15   ar
    41    33    29   ar
    42    13     5    1
    43    41    35   ar
    44    19    21    1
    45    19    22    1
    46     2    14    1
    47    33    34    1
@<TRIPOS>MOLECULE
*****
 41 47 0 0 0
SMALL
GASTEIGER

@<TRIPOS>ATOM
      1 C         139.3494  140.6919  164.2859 C.3     1  UNL1        0.1707
      2 N         139.4464  141.7705  163.2480 N.3     1  UNL1       -0.2797
      3 C         139.7902  143.1730  163.6538 C.3     1  UNL1        0.1167
      4 C         140.0371  143.4970  165.0974 C.3     1  UNL1        0.0511
      5 C         139.9401  142.4184  166.1353 C.2     1  UNL1       -0.0037
      6 C         139.5963  141.0159  165.7296 C.2     1  UNL1        0.0800
      7 N         139.5723  140.1682  166.9668 N.2     1  UNL1       -0.2519
      8 C         139.9014  141.0468  168.1372 C.2     1  UNL1        0.0627
      9 C         140.0234  140.7601  169.6045 C.3     1  UNL1        0.0717
     10 C         140.3727  141.8642  170.5578 C.2     1  UNL1       -0.0198
     11 C         140.6000  143.2549  170.0439 C.2     1  UNL1       -0.0042
     12 C         140.4780  143.5416  168.5767 C.2     1  UNL1        0.0006
     13 C         140.1287  142.4375  167.6233 C.2     1  UNL1        0.0111
     14 H         138.5402  141.8126  162.7816 H       1  UNL1        0.1246
     15 C         139.1416  139.3374  164.8962 C.ar    1  UNL1        0.2494
     16 N         140.0408  138.1485  164.7306 N.ar    1  UNL1       -0.1082
     17 N         139.4530  137.0104  165.5112 N.ar    1  UNL1       -0.0928
     18 C         138.1904  137.4961  166.1592 C.ar    1  UNL1        0.3052
     19 N         137.2802  136.6859  167.0338 N.pl3   1  UNL1       -0.3115
     20 O         137.9980  138.9344  165.7791 O.2     1  UNL1       -0.4068
     21 H         137.4926  135.7441  167.2267 H       1  UNL1        0.1467
     22 H         136.4703  137.0958  167.4150 H       1  UNL1        0.1467
     23 C         139.7662  138.3560  159.5689 C.3     1  UNL1        0.1537
     24 N         139.2219  138.8238  160.8860 N.ar    1  UNL1       -0.2476
     25 C         139.9473  139.6713  161.8889 C.ar    1  UNL1        0.0945
     26 C         139.0303  139.8975  163.0543 C.ar    1  UNL1        0.0439
     27 C         137.7383  139.1898  162.7716 C.ar    1  UNL1        0.1194
     28 N         137.8567  138.5262  161.4316 N.ar    1  UNL1       -0.1679
     29 C         139.8872  144.2516  162.6158 C.ar    1  UNL1        0.1319
     30 N         140.2137  144.0526  161.1654 N.ar    1  UNL1       -0.2282
     31 C         140.2030  145.3965  160.4993 C.ar    1  UNL1        0.1171
     32 C         139.8700  146.4261  161.5380 C.ar    1  UNL1        0.0942
     33 N         139.6749  145.7185  162.8462 N.ar    1  UNL1       -0.3385
     34 H         139.4474  146.1424  163.7051 H       1  UNL1        0.1672
     35 C         140.4772  145.6639  159.0489 C.ar    1  UNL1        0.1006
     36 C         141.7697  145.2142  158.4347 C.ar    1  UNL1        0.0230
     37 C         142.0440  145.4816  156.9845 C.ar    1  UNL1        0.0328
     38 C         141.0257  146.1986  156.1484 C.ar    1  UNL1        0.1592
     39 F         141.2999  146.4660  154.6981 F       1  UNL1       -0.2025
     40 C         139.7333  146.6483  156.7627 C.ar    1  UNL1        0.1284
     41 N         139.4590  146.3810  158.2129 N.ar    1  UNL1       -0.2399
@<TRIPOS>BOND
     1    23    24    1
     2    24    25   ar
     3    25    26   ar
     4     1    26    1
     5     1    15    1
     6    15    16   ar
     7    16    17   ar
     8    17    18   ar
     9    18    19    1
    10    18    20   ar
    11     1     2    1
    12     2     3    1
    13     3    29    1
    14    29    30   ar
    15    30    31   ar
    16    31    35    1
    17    35    36   ar
    18    36    37   ar
    19    37    38   ar
    20    38    39    1
    21    38    40   ar
    22    40    41   ar
    23    31    32   ar
    24    32    33   ar
    25     3     4    1
    26     4     5    1
    27     5     6    2
    28     6     7    1
    29     7     8    2
    30     8     9    1
    31     9    10    1
    32    10    11    2
    33    11    12    1
    34    12    13    2
    35    26    27   ar
    36    27    28   ar
    37    28    24   ar
    38     6     1    1
    39    13     8    1
    40    20    15   ar
    41    33    29   ar
    42    13     5    1
    43    41    35   ar
    44    19    21    1
    45    19    22    1
    46     2    14    1
    47    33    34    1
@<TRIPOS>MOLECULE
*****
 41 47 0 0 0
SMALL
GASTEIGER

@<TRIPOS>ATOM
      1 C         141.5391  141.8742  158.9110 C.3     1  UNL1        0.1707
      2 N         141.4508  140.5988  158.1265 N.3     1  UNL1       -0.2797
      3 C         142.2017  139.3835  158.5840 C.3     1  UNL1        0.1167
      4 C         143.0409  139.4437  159.8259 C.3     1  UNL1        0.0511
      5 C         143.1291  140.7192  160.6103 C.2     1  UNL1       -0.0037
      6 C         142.3782  141.9344  160.1529 C.2     1  UNL1        0.0800
      7 N         142.6554  143.0434  161.1242 N.2     1  UNL1       -0.2519
      8 C         143.5776  142.5135  162.1819 C.2     1  UNL1        0.0627
      9 C         144.1885  143.1534  163.3932 C.3     1  UNL1        0.0717
     10 C         145.0922  142.3568  164.2869 C.2     1  UNL1       -0.0198
     11 C         145.3850  140.9204  163.9693 C.2     1  UNL1       -0.0042
     12 C         144.7740  140.2805  162.7580 C.2     1  UNL1        0.0006
     13 C         143.8703  141.0770  161.8643 C.2     1  UNL1        0.0111
     14 H         141.7782  140.8096  157.1838 H       1  UNL1        0.1246
     15 C         141.3080  143.3009  159.3126 C.ar    1  UNL1        0.2494
     16 N         142.1400  144.4788  158.9001 N.ar    1  UNL1       -0.1082
     17 N         141.5505  145.7060  159.5299 N.ar    1  UNL1       -0.0928
     18 C         140.3543  145.2865  160.3316 C.ar    1  UNL1        0.3052
     19 N         139.4641  146.1941  161.1279 N.pl3   1  UNL1       -0.3115
     20 O         140.2044  143.8000  160.1974 O.2     1  UNL1       -0.4068
     21 H         139.6449  147.1615  161.1547 H       1  UNL1        0.1467
     22 H         138.6991  145.8224  161.6237 H       1  UNL1        0.1467
     23 C         137.1719  142.9717  156.1533 C.3     1  UNL1        0.1537
     24 N         138.6124  142.8140  156.5410 N.ar    1  UNL1       -0.2476
     25 C         139.1205  142.2977  157.8546 C.ar    1  UNL1        0.0945
     26 C         140.6197  142.3095  157.8086 C.ar    1  UNL1        0.0439
     27 C         141.0382  142.8331  156.4667 C.ar    1  UNL1        0.1194
     28 N         139.7976  143.1449  155.6832 N.ar    1  UNL1       -0.1679
     29 C         142.1135  138.1080  157.7995 C.ar    1  UNL1        0.1319
     30 N         143.0448  136.9375  157.9122 N.ar    1  UNL1       -0.2282
     31 C         142.5855  135.8852  156.9470 C.ar    1  UNL1        0.1171
     32 C         141.3702  136.4052  156.2380 C.ar    1  UNL1        0.0942
     33 N         141.0786  137.7790  156.7649 N.ar    1  UNL1       -0.3385
     34 H         140.3379  138.3623  156.4814 H       1  UNL1        0.1672
     35 C         143.2285  134.5475  156.7292 C.ar    1  UNL1        0.1006
     36 C         143.0747  133.8471  155.4117 C.ar    1  UNL1        0.0230
     37 C         143.7177  132.5096  155.1939 C.ar    1  UNL1        0.0328
     38 C         144.5144  131.8724  156.2935 C.ar    1  UNL1        0.1592
     39 F         145.1574  130.5348  156.0757 F       1  UNL1       -0.2025
     40 C         144.6681  132.5728  157.6110 C.ar    1  UNL1        0.1284
     41 N         144.0251  133.9104  157.8289 N.ar    1  UNL1       -0.2399
@<TRIPOS>BOND
     1    23    24    1
     2    24    25   ar
     3    25    26   ar
     4     1    26    1
     5     1    15    1
     6    15    16   ar
     7    16    17   ar
     8    17    18   ar
     9    18    19    1
    10    18    20   ar
    11     1     2    1
    12     2     3    1
    13     3    29    1
    14    29    30   ar
    15    30    31   ar
    16    31    35    1
    17    35    36   ar
    18    36    37   ar
    19    37    38   ar
    20    38    39    1
    21    38    40   ar
    22    40    41   ar
    23    31    32   ar
    24    32    33   ar
    25     3     4    1
    26     4     5    1
    27     5     6    2
    28     6     7    1
    29     7     8    2
    30     8     9    1
    31     9    10    1
    32    10    11    2
    33    11    12    1
    34    12    13    2
    35    26    27   ar
    36    27    28   ar
    37    28    24   ar
    38     6     1    1
    39    13     8    1
    40    20    15   ar
    41    33    29   ar
    42    13     5    1
    43    41    35   ar
    44    19    21    1
    45    19    22    1
    46     2    14    1
    47    33    34    1
@<TRIPOS>MOLECULE
*****
 41 47 0 0 0
SMALL
GASTEIGER

@<TRIPOS>ATOM
      1 C         141.6587  142.0805  161.6513 C.3     1  UNL1        0.1707
      2 N         141.8672  141.3044  160.3847 N.3     1  UNL1       -0.2797
      3 C         142.3907  139.8999  160.4433 C.3     1  UNL1        0.1167
      4 C         142.7057  139.2716  161.7684 C.3     1  UNL1        0.0511
      5 C         142.4973  140.0477  163.0350 C.2     1  UNL1       -0.0037
      6 C         141.9738  141.4521  162.9764 C.2     1  UNL1        0.0800
      7 N         141.8705  141.9673  164.3814 N.2     1  UNL1       -0.2519
      8 C         142.3302  140.8812  165.3083 C.2     1  UNL1        0.0627
      9 C         142.4462  140.8192  166.8025 C.3     1  UNL1        0.0717
     10 C         142.9494  139.5709  167.4646 C.2     1  UNL1       -0.0198
     11 C         143.3368  138.3845  166.6324 C.2     1  UNL1       -0.0042
     12 C         143.2209  138.4465  165.1382 C.2     1  UNL1        0.0006
     13 C         142.7176  139.6948  164.4762 C.2     1  UNL1        0.0111
     14 H         142.5232  141.8397  159.8160 H       1  UNL1        0.1246
     15 C         141.2972  143.2112  162.5683 C.ar    1  UNL1        0.2494
     16 N         142.1636  144.3903  162.8982 N.ar    1  UNL1       -0.1082
     17 N         141.4077  145.2691  163.8502 N.ar    1  UNL1       -0.0928
     18 C         140.0741  144.6330  164.1087 C.ar    1  UNL1        0.3052
     19 N         138.9977  145.1739  165.0025 N.pl3   1  UNL1       -0.3115
     20 O         140.0058  143.3611  163.3164 O.2     1  UNL1       -0.4068
     21 H         139.1369  146.0216  165.4833 H       1  UNL1        0.1467
     22 H         138.1520  144.6812  165.1083 H       1  UNL1        0.1467
     23 C         141.7410  145.7783  157.8829 C.3     1  UNL1        0.1537
     24 N         141.2559  144.8012  158.9126 N.ar    1  UNL1       -0.2476
     25 C         142.1175  143.9095  159.7568 C.ar    1  UNL1        0.0945
     26 C         141.2181  143.1015  160.6447 C.ar    1  UNL1        0.0439
     27 C         139.8008  143.4938  160.3492 C.ar    1  UNL1        0.1194
     28 N         139.8242  144.5443  159.2786 N.ar    1  UNL1       -0.1679
     29 C         142.5991  139.1237  159.1767 C.ar    1  UNL1        0.1319
     30 N         142.3326  137.6601  158.9857 N.ar    1  UNL1       -0.2282
     31 C         142.6794  137.3067  157.5698 C.ar    1  UNL1        0.1171
     32 C         143.1604  138.5520  156.8858 C.ar    1  UNL1        0.0942
     33 N         143.1108  139.6750  157.8789 N.ar    1  UNL1       -0.3385
     34 H         143.3687  140.6098  157.7088 H       1  UNL1        0.1672
     35 C         142.5654  135.9467  156.9472 C.ar    1  UNL1        0.1006
     36 C         141.6484  135.7308  155.7799 C.ar    1  UNL1        0.0230
     37 C         141.5343  134.3709  155.1573 C.ar    1  UNL1        0.0328
     38 C         142.3372  133.2269  155.7020 C.ar    1  UNL1        0.1592
     39 F         142.2231  131.8670  155.0795 F       1  UNL1       -0.2025
     40 C         143.2541  133.4429  156.8693 C.ar    1  UNL1        0.1284
     41 N         143.3682  134.8028  157.4919 N.ar    1  UNL1       -0.2399
@<TRIPOS>BOND
     1    23    24    1
     2    24    25   ar
     3    25    26   ar
     4     1    26    1
     5     1    15    1
     6    15    16   ar
     7    16    17   ar
     8    17    18   ar
     9    18    19    1
    10    18    20   ar
    11     1     2    1
    12     2     3    1
    13     3    29    1
    14    29    30   ar
    15    30    31   ar
    16    31    35    1
    17    35    36   ar
    18    36    37   ar
    19    37    38   ar
    20    38    39    1
    21    38    40   ar
    22    40    41   ar
    23    31    32   ar
    24    32    33   ar
    25     3     4    1
    26     4     5    1
    27     5     6    2
    28     6     7    1
    29     7     8    2
    30     8     9    1
    31     9    10    1
    32    10    11    2
    33    11    12    1
    34    12    13    2
    35    26    27   ar
    36    27    28   ar
    37    28    24   ar
    38     6     1    1
    39    13     8    1
    40    20    15   ar
    41    33    29   ar
    42    13     5    1
    43    41    35   ar
    44    19    21    1
    45    19    22    1
    46     2    14    1
    47    33    34    1
@<TRIPOS>MOLECULE
*****
 41 47 0 0 0
SMALL
GASTEIGER

@<TRIPOS>ATOM
      1 C         141.7540  141.7135  160.4190 C.3     1  UNL1        0.1707
      2 N         141.3941  142.4175  159.1444 N.3     1  UNL1       -0.2797
      3 C         140.5025  143.6233  159.1797 C.3     1  UNL1        0.1167
      4 C         139.9709  144.1249  160.4895 C.3     1  UNL1        0.0511
      5 C         140.3309  143.4209  161.7642 C.2     1  UNL1       -0.0037
      6 C         141.2224  142.2151  161.7289 C.2     1  UNL1        0.0800
      7 N         141.4037  141.7314  163.1371 N.2     1  UNL1       -0.2519
      8 C         140.6242  142.6382  164.0427 C.2     1  UNL1        0.0627
      9 C         140.4325  142.6480  165.5304 C.3     1  UNL1        0.0717
     10 C         139.5777  143.7020  166.1694 C.2     1  UNL1       -0.0198
     11 C         138.9146  144.7461  165.3209 C.2     1  UNL1       -0.0042
     12 C         139.1063  144.7363  163.8332 C.2     1  UNL1        0.0006
     13 C         139.9611  143.6824  163.1942 C.2     1  UNL1        0.0111
     14 H         140.9353  141.7294  158.5474 H       1  UNL1        0.1246
     15 C         142.3734  140.7147  161.3513 C.ar    1  UNL1        0.2494
     16 N         141.7843  139.3926  161.7448 N.ar    1  UNL1       -0.1082
     17 N         142.7374  138.7236  162.6904 N.ar    1  UNL1       -0.0928
     18 C         143.9155  139.6322  162.8811 C.ar    1  UNL1        0.3052
     19 N         145.1090  139.3583  163.7474 N.pl3   1  UNL1       -0.3115
     20 O         143.6905  140.8628  162.0535 O.2     1  UNL1       -0.4068
     21 H         145.1659  138.5170  164.2555 H       1  UNL1        0.1467
     22 H         145.8356  140.0200  163.8080 H       1  UNL1        0.1467
     23 C         142.9227  137.9547  156.8996 C.3     1  UNL1        0.1537
     24 N         143.0379  139.1372  157.8152 N.ar    1  UNL1       -0.2476
     25 C         141.9495  139.6834  158.6911 C.ar    1  UNL1        0.0945
     26 C         142.5007  140.8649  159.4329 C.ar    1  UNL1        0.0439
     27 C         143.9297  141.0489  159.0155 C.ar    1  UNL1        0.1194
     28 N         144.2617  139.9811  158.0157 N.ar    1  UNL1       -0.1679
     29 C         140.1424  144.3274  157.9050 C.ar    1  UNL1        0.1319
     30 N         140.1159  145.8124  157.6953 N.ar    1  UNL1       -0.2282
     31 C         139.7028  146.0729  156.2771 C.ar    1  UNL1        0.1171
     32 C         139.4741  144.7489  155.6102 C.ar    1  UNL1        0.0942
     33 N         139.7458  143.6701  156.6163 N.ar    1  UNL1       -0.3385
     34 H         139.6761  142.7008  156.4586 H       1  UNL1        0.1672
     35 C         139.5460  147.4209  155.6378 C.ar    1  UNL1        0.1006
     36 C         140.1812  147.6986  154.3077 C.ar    1  UNL1        0.0230
     37 C         140.0244  149.0465  153.6685 C.ar    1  UNL1        0.0328
     38 C         139.2324  150.1166  154.3594 C.ar    1  UNL1        0.1592
     39 F         139.0756  151.4646  153.7202 F       1  UNL1       -0.2025
     40 C         138.5971  149.8389  155.6896 C.ar    1  UNL1        0.1284
     41 N         138.7539  148.4910  156.3288 N.ar    1  UNL1       -0.2399
@<TRIPOS>BOND
     1    23    24    1
     2    24    25   ar
     3    25    26   ar
     4     1    26    1
     5     1    15    1
     6    15    16   ar
     7    16    17   ar
     8    17    18   ar
     9    18    19    1
    10    18    20   ar
    11     1     2    1
    12     2     3    1
    13     3    29    1
    14    29    30   ar
    15    30    31   ar
    16    31    35    1
    17    35    36   ar
    18    36    37   ar
    19    37    38   ar
    20    38    39    1
    21    38    40   ar
    22    40    41   ar
    23    31    32   ar
    24    32    33   ar
    25     3     4    1
    26     4     5    1
    27     5     6    2
    28     6     7    1
    29     7     8    2
    30     8     9    1
    31     9    10    1
    32    10    11    2
    33    11    12    1
    34    12    13    2
    35    26    27   ar
    36    27    28   ar
    37    28    24   ar
    38     6     1    1
    39    13     8    1
    40    20    15   ar
    41    33    29   ar
    42    13     5    1
    43    41    35   ar
    44    19    21    1
    45    19    22    1
    46     2    14    1
    47    33    34    1
@<TRIPOS>MOLECULE
*****
 41 47 0 0 0
SMALL
GASTEIGER

@<TRIPOS>ATOM
      1 C         140.8782  141.4507  159.7624 C.3     1  UNL1        0.1707
      2 N         141.1904  140.3637  158.7771 N.3     1  UNL1       -0.2797
      3 C         142.4511  139.5633  158.9178 C.3     1  UNL1        0.1167
      4 C         143.3997  139.8498  160.0440 C.3     1  UNL1        0.0511
      5 C         143.0875  140.9368  161.0293 C.2     1  UNL1       -0.0037
      6 C         141.8268  141.7373  160.8885 C.2     1  UNL1        0.0800
      7 N         141.7867  142.7389  162.0044 N.2     1  UNL1       -0.2519
      8 C         143.0226  142.5574  162.8349 C.2     1  UNL1        0.0627
      9 C         143.5198  143.2624  164.0619 C.3     1  UNL1        0.0717
     10 C         144.8209  142.8537  164.6863 C.2     1  UNL1       -0.0198
     11 C         145.6249  141.7400  164.0836 C.2     1  UNL1       -0.0042
     12 C         145.1277  141.0350  162.8566 C.2     1  UNL1        0.0006
     13 C         143.8266  141.4437  162.2322 C.2     1  UNL1        0.0111
     14 H         141.2205  140.8009  157.8560 H       1  UNL1        0.1246
     15 C         140.1486  142.5737  160.4382 C.ar    1  UNL1        0.2494
     16 N         138.9788  142.4329  161.3664 N.ar    1  UNL1       -0.1082
     17 N         138.5681  143.8069  161.8063 N.ar    1  UNL1       -0.0928
     18 C         139.4841  144.7968  161.1500 C.ar    1  UNL1        0.3052
     19 N         139.4323  146.2873  161.3109 N.pl3   1  UNL1       -0.3115
     20 O         140.4610  144.0347  160.3044 O.2     1  UNL1       -0.4068
     21 H         138.7504  146.6964  161.8913 H       1  UNL1        0.1467
     22 H         140.0803  146.8565  160.8361 H       1  UNL1        0.1467
     23 C         137.4276  143.1973  156.1675 C.3     1  UNL1        0.1537
     24 N         138.0902  142.3570  157.2186 N.ar    1  UNL1       -0.2476
     25 C         139.3962  142.6564  157.8929 C.ar    1  UNL1        0.0945
     26 C         139.6763  141.5542  158.8710 C.ar    1  UNL1        0.0439
     27 C         138.5433  140.5736  158.8012 C.ar    1  UNL1        0.1194
     28 N         137.5630  141.0698  157.7800 N.ar    1  UNL1       -0.1679
     29 C         142.7633  138.4762  157.9324 C.ar    1  UNL1        0.1319
     30 N         142.3428  137.0405  158.0411 N.ar    1  UNL1       -0.2282
     31 C         142.8704  136.3109  156.8413 C.ar    1  UNL1        0.1171
     32 C         143.6169  137.2958  155.9912 C.ar    1  UNL1        0.0942
     33 N         143.5508  138.6340  156.6656 N.ar    1  UNL1       -0.3385
     34 H         143.9535  139.4693  156.3349 H       1  UNL1        0.1672
     35 C         142.6840  134.8525  156.5438 C.ar    1  UNL1        0.1006
     36 C         141.7190  134.4215  155.4794 C.ar    1  UNL1        0.0230
     37 C         141.5327  132.9632  155.1819 C.ar    1  UNL1        0.0328
     38 C         142.3114  131.9359  155.9488 C.ar    1  UNL1        0.1592
     39 F         142.1251  130.4775  155.6513 F       1  UNL1       -0.2025
     40 C         143.2764  132.3669  157.0132 C.ar    1  UNL1        0.1284
     41 N         143.4627  133.8252  157.3107 N.ar    1  UNL1       -0.2399
@<TRIPOS>BOND
     1    23    24    1
     2    24    25   ar
     3    25    26   ar
     4     1    26    1
     5     1    15    1
     6    15    16   ar
     7    16    17   ar
     8    17    18   ar
     9    18    19    1
    10    18    20   ar
    11     1     2    1
    12     2     3    1
    13     3    29    1
    14    29    30   ar
    15    30    31   ar
    16    31    35    1
    17    35    36   ar
    18    36    37   ar
    19    37    38   ar
    20    38    39    1
    21    38    40   ar
    22    40    41   ar
    23    31    32   ar
    24    32    33   ar
    25     3     4    1
    26     4     5    1
    27     5     6    2
    28     6     7    1
    29     7     8    2
    30     8     9    1
    31     9    10    1
    32    10    11    2
    33    11    12    1
    34    12    13    2
    35    26    27   ar
    36    27    28   ar
    37    28    24   ar
    38     6     1    1
    39    13     8    1
    40    20    15   ar
    41    33    29   ar
    42    13     5    1
    43    41    35   ar
    44    19    21    1
    45    19    22    1
    46     2    14    1
    47    33    34    1
@<TRIPOS>MOLECULE
*****
 41 47 0 0 0
SMALL
GASTEIGER

@<TRIPOS>ATOM
      1 C         141.5104  141.1245  159.9708 C.3     1  UNL1        0.1707
      2 N         140.9382  141.9890  158.8867 N.3     1  UNL1       -0.2797
      3 C         141.0266  143.4825  158.9934 C.3     1  UNL1        0.1167
      4 C         141.6871  144.1116  160.1842 C.3     1  UNL1        0.0511
      5 C         142.2593  143.2472  161.2683 C.2     1  UNL1       -0.0037
      6 C         142.1709  141.7536  161.1616 C.2     1  UNL1        0.0800
      7 N         142.8205  141.1628  162.3777 N.2     1  UNL1       -0.2519
      8 C         143.3103  142.2913  163.2360 C.2     1  UNL1        0.0627
      9 C         144.0273  142.3122  164.5534 C.3     1  UNL1        0.0717
     10 C         144.3975  143.6214  165.1850 C.2     1  UNL1       -0.0198
     11 C         144.0507  144.9096  164.4993 C.2     1  UNL1       -0.0042
     12 C         143.3337  144.8887  163.1819 C.2     1  UNL1        0.0006
     13 C         142.9635  143.5795  162.5503 C.2     1  UNL1        0.0111
     14 H         139.9474  141.7569  158.8171 H       1  UNL1        0.1246
     15 C         141.9002  139.8930  160.7334 C.ar    1  UNL1        0.2494
     16 N         143.1709  139.1149  160.5615 N.ar    1  UNL1       -0.1082
     17 N         143.1437  137.9644  161.5237 N.ar    1  UNL1       -0.0928
     18 C         141.8561  138.0315  162.2901 C.ar    1  UNL1        0.3052
     19 N         141.4145  137.0747  163.3577 N.pl3   1  UNL1       -0.3115
     20 O         141.0875  139.2235  161.8017 O.2     1  UNL1       -0.4068
     21 H         141.9919  136.3184  163.6103 H       1  UNL1        0.1467
     22 H         140.5473  137.2030  163.8056 H       1  UNL1        0.1467
     23 C         141.0359  137.8090  155.8887 C.3     1  UNL1        0.1537
     24 N         140.7670  138.5437  157.1686 N.ar    1  UNL1       -0.2476
     25 C         141.6313  139.6121  157.7701 C.ar    1  UNL1        0.0945
     26 C         140.9852  140.0677  159.0449 C.ar    1  UNL1        0.0439
     27 C         139.7217  139.2809  159.2312 C.ar    1  UNL1        0.1194
     28 N         139.5869  138.3391  158.0715 N.ar    1  UNL1       -0.1679
     29 C         140.4544  144.3471  157.9092 C.ar    1  UNL1        0.1319
     30 N         140.2652  145.8337  157.9748 N.ar    1  UNL1       -0.2282
     31 C         139.6649  146.2822  156.6754 C.ar    1  UNL1        0.1171
     32 C         139.4831  145.0728  155.8068 C.ar    1  UNL1        0.0942
     33 N         139.9711  143.8769  156.5694 N.ar    1  UNL1       -0.3385
     34 H         139.9736  142.9466  156.2471 H       1  UNL1        0.1672
     35 C         139.3089  147.6925  156.3089 C.ar    1  UNL1        0.1006
     36 C         138.5630  148.5552  157.2834 C.ar    1  UNL1        0.0230
     37 C         138.2070  149.9654  156.9169 C.ar    1  UNL1        0.0328
     38 C         138.5968  150.5131  155.5760 C.ar    1  UNL1        0.1592
     39 F         138.2408  151.9234  155.2095 F       1  UNL1       -0.2025
     40 C         139.3426  149.6505  154.6015 C.ar    1  UNL1        0.1284
     41 N         139.6986  148.2402  154.9679 N.ar    1  UNL1       -0.2399
@<TRIPOS>BOND
     1    23    24    1
     2    24    25   ar
     3    25    26   ar
     4     1    26    1
     5     1    15    1
     6    15    16   ar
     7    16    17   ar
     8    17    18   ar
     9    18    19    1
    10    18    20   ar
    11     1     2    1
    12     2     3    1
    13     3    29    1
    14    29    30   ar
    15    30    31   ar
    16    31    35    1
    17    35    36   ar
    18    36    37   ar
    19    37    38   ar
    20    38    39    1
    21    38    40   ar
    22    40    41   ar
    23    31    32   ar
    24    32    33   ar
    25     3     4    1
    26     4     5    1
    27     5     6    2
    28     6     7    1
    29     7     8    2
    30     8     9    1
    31     9    10    1
    32    10    11    2
    33    11    12    1
    34    12    13    2
    35    26    27   ar
    36    27    28   ar
    37    28    24   ar
    38     6     1    1
    39    13     8    1
    40    20    15   ar
    41    33    29   ar
    42    13     5    1
    43    41    35   ar
    44    19    21    1
    45    19    22    1
    46     2    14    1
    47    33    34    1
@<TRIPOS>MOLECULE
*****
 41 47 0 0 0
SMALL
GASTEIGER

@<TRIPOS>ATOM
      1 C         142.1739  140.8186  164.4813 C.3     1  UNL1        0.1707
      2 N         141.8490  141.8275  163.4199 N.3     1  UNL1       -0.2797
      3 C         141.1570  143.1065  163.7877 C.3     1  UNL1        0.1167
      4 C         140.7899  143.3766  165.2168 C.3     1  UNL1        0.0511
      5 C         141.1148  142.3677  166.2781 C.2     1  UNL1       -0.0037
      6 C         141.8068  141.0887  165.9104 C.2     1  UNL1        0.0800
      7 N         141.9974  140.2878  167.1643 N.2     1  UNL1       -0.2519
      8 C         141.4233  141.0718  168.3069 C.2     1  UNL1        0.0627
      9 C         141.3267  140.7813  169.7753 C.3     1  UNL1        0.0717
     10 C         140.6846  141.7762  170.6960 C.2     1  UNL1       -0.0198
     11 C         140.1391  143.0617  170.1484 C.2     1  UNL1       -0.0042
     12 C         140.2357  143.3523  168.6800 C.2     1  UNL1        0.0006
     13 C         140.8778  142.3573  167.7593 C.2     1  UNL1        0.0111
     14 H         141.2544  141.3565  162.7381 H       1  UNL1        0.1246
     15 C         142.6883  139.5646  165.1239 C.ar    1  UNL1        0.2494
     16 N         141.9316  138.2788  165.2787 N.ar    1  UNL1       -0.1082
     17 N         142.8255  137.2959  165.9750 N.ar    1  UNL1       -0.0928
     18 C         144.1346  137.9742  166.2506 C.ar    1  UNL1        0.3052
     19 N         145.3203  137.3585  166.9325 N.pl3   1  UNL1       -0.3115
     20 O         144.0498  139.3764  165.7246 O.2     1  UNL1       -0.4068
     21 H         145.2793  136.4255  167.2443 H       1  UNL1        0.1467
     22 H         146.1396  137.8873  167.0683 H       1  UNL1        0.1467
     23 C         142.5611  137.7219  160.2220 C.3     1  UNL1        0.1537
     24 N         142.8977  138.6896  161.3176 N.ar    1  UNL1       -0.2476
     25 C         141.9694  139.1521  162.4014 C.ar    1  UNL1        0.0945
     26 C         142.7197  140.1130  163.2754 C.ar    1  UNL1        0.0439
     27 C         144.1115  140.2444  162.7317 C.ar    1  UNL1        0.1194
     28 N         144.2215  139.3647  161.5217 N.ar    1  UNL1       -0.1679
     29 C         140.8321  144.1155  162.7263 C.ar    1  UNL1        0.1319
     30 N         141.1569  143.9955  161.2668 N.ar    1  UNL1       -0.2282
     31 C         140.6509  145.2274  160.5766 C.ar    1  UNL1        0.1171
     32 C         140.0135  146.1088  161.6095 C.ar    1  UNL1        0.0942
     33 N         140.1255  145.4216  162.9381 N.ar    1  UNL1       -0.3385
     34 H         139.7935  145.7671  163.7981 H       1  UNL1        0.1672
     35 C         140.7627  145.5256  159.1107 C.ar    1  UNL1        0.1006
     36 C         141.9556  145.0476  158.3370 C.ar    1  UNL1        0.0230
     37 C         142.0675  145.3458  156.8713 C.ar    1  UNL1        0.0328
     38 C         140.9865  146.1219  156.1792 C.ar    1  UNL1        0.1592
     39 F         141.0984  146.4201  154.7133 F       1  UNL1       -0.2025
     40 C         139.7936  146.5999  156.9528 C.ar    1  UNL1        0.1284
     41 N         139.6818  146.3017  158.4186 N.ar    1  UNL1       -0.2399
@<TRIPOS>BOND
     1    23    24    1
     2    24    25   ar
     3    25    26   ar
     4     1    26    1
     5     1    15    1
     6    15    16   ar
     7    16    17   ar
     8    17    18   ar
     9    18    19    1
    10    18    20   ar
    11     1     2    1
    12     2     3    1
    13     3    29    1
    14    29    30   ar
    15    30    31   ar
    16    31    35    1
    17    35    36   ar
    18    36    37   ar
    19    37    38   ar
    20    38    39    1
    21    38    40   ar
    22    40    41   ar
    23    31    32   ar
    24    32    33   ar
    25     3     4    1
    26     4     5    1
    27     5     6    2
    28     6     7    1
    29     7     8    2
    30     8     9    1
    31     9    10    1
    32    10    11    2
    33    11    12    1
    34    12    13    2
    35    26    27   ar
    36    27    28   ar
    37    28    24   ar
    38     6     1    1
    39    13     8    1
    40    20    15   ar
    41    33    29   ar
    42    13     5    1
    43    41    35   ar
    44    19    21    1
    45    19    22    1
    46     2    14    1
    47    33    34    1
