@<TRIPOS>MOLECULE
*****
 40 44 0 0 0
SMALL
GASTEIGER

@<TRIPOS>ATOM
      1 C         138.1378  139.3979  162.3215 C.ar    1  UNL1        0.0536
      2 C         138.6092  138.1394  162.9875 C.ar    1  UNL1        0.0042
      3 C         138.7471  138.0872  164.4802 C.ar    1  UNL1       -0.0041
      4 C         138.4136  139.2936  165.3069 C.ar    1  UNL1       -0.0208
      5 C         137.9421  140.5522  164.6408 C.ar    1  UNL1       -0.0041
      6 C         137.8042  140.6043  163.1481 C.ar    1  UNL1        0.0042
      7 O         136.6388  139.4108  160.1994 O.2     1  UNL1       -0.2699
      8 C         137.9999  139.4502  160.8287 C.2     1  UNL1        0.2491
      9 N         139.2230  139.5418  159.9652 N.am    1  UNL1       -0.2732
     10 C         140.5840  139.5811  160.5945 C.3     1  UNL1        0.1111
     11 C         141.8072  139.6727  159.7310 C.3     1  UNL1        0.0942
     12 N         141.6692  139.7249  158.2383 N.3     1  UNL1       -0.2632
     13 C         140.3082  139.6856  157.6090 C.3     1  UNL1        0.0942
     14 C         139.0851  139.5940  158.4725 C.3     1  UNL1        0.1111
     15 C         142.8923  139.8165  157.3748 C.3     1  UNL1        0.1427
     16 C         143.4631  138.5785  156.7492 C.ar    1  UNL1        0.1994
     17 N         144.5724  138.5315  155.7404 N.ar    1  UNL1       -0.1108
     18 N         144.8197  137.0940  155.3902 N.ar    1  UNL1       -0.0452
     19 N         143.8634  136.2527  156.1825 N.ar    1  UNL1       -0.1453
     20 N         143.0250  137.1702  157.0223 N.ar    1  UNL1       -0.1326
     21 C         143.7631  134.7567  156.1419 C.3     1  UNL1        0.2232
     22 C         142.4168  134.0956  156.1199 C.3     1  UNL1        0.3445
     23 F         141.2159  134.8553  155.6396 F       1  UNL1       -0.1961
     24 F         142.2714  132.6747  156.5782 F       1  UNL1       -0.1961
     25 C         138.5515  139.2414  166.7997 C.3     1  UNL1        0.0420
     26 C         139.6554  139.9973  167.4778 C.3     1  UNL1        0.0585
     27 C         139.7761  140.2484  168.9517 C.3     1  UNL1        0.0175
     28 C         141.0277  141.0412  169.1859 C.3     1  UNL1        0.0199
     29 C         141.6806  141.2801  167.8567 C.3     1  UNL1        0.0855
     30 N         140.8325  140.6350  166.8010 N.3     1  UNL1       -0.2971
     31 H         141.3742  139.9255  166.3075 H       1  UNL1        0.1233
     32 C         142.9574  142.0322  167.6241 C.3     1  UNL1        0.1470
     33 O         143.6590  142.6927  168.7737 O.3     1  UNL1       -0.3787
     34 H         144.4621  143.1320  168.4530 H       1  UNL1        0.2108
     35 C         143.5328  142.1237  166.2419 C.ar    1  UNL1        0.0055
     36 C         143.9172  143.4589  165.6765 C.ar    1  UNL1       -0.0019
     37 C         144.4926  143.5505  164.2942 C.ar    1  UNL1       -0.0002
     38 C         144.6835  142.3070  163.4774 C.ar    1  UNL1       -0.0000
     39 C         144.2991  140.9719  164.0428 C.ar    1  UNL1       -0.0002
     40 C         143.7237  140.8802  165.4251 C.ar    1  UNL1       -0.0019
@<TRIPOS>BOND
     1     7     8    2
     2     8     1    1
     3     1     2   ar
     4     2     3   ar
     5     3     4   ar
     6     4    25    1
     7    26    25    1
     8    26    27    1
     9    27    28    1
    10    29    28    1
    11    29    32    1
    12    32    33    1
    13    32    35    1
    14    35    36   ar
    15    36    37   ar
    16    37    38   ar
    17    38    39   ar
    18    39    40   ar
    19    29    30    1
    20     4     5   ar
    21     5     6   ar
    22     8     9   am
    23     9    10    1
    24    10    11    1
    25    11    12    1
    26    12    15    1
    27    15    16    1
    28    16    17   ar
    29    17    18   ar
    30    18    19   ar
    31    19    21    1
    32    21    22    1
    33    22    23    1
    34    22    24    1
    35    19    20   ar
    36    12    13    1
    37    13    14    1
    38     6     1   ar
    39    14     9    1
    40    30    26    1
    41    20    16   ar
    42    40    35   ar
    43    33    34    1
    44    30    31    1
@<TRIPOS>MOLECULE
*****
 40 44 0 0 0
SMALL
GASTEIGER

@<TRIPOS>ATOM
      1 C         144.0427  142.6998  158.5524 C.ar    1  UNL1        0.0536
      2 C         142.9587  143.6018  158.0412 C.ar    1  UNL1        0.0042
      3 C         142.0397  144.2912  159.0057 C.ar    1  UNL1       -0.0041
      4 C         142.2047  144.0785  160.4813 C.ar    1  UNL1       -0.0208
      5 C         143.2886  143.1764  160.9925 C.ar    1  UNL1       -0.0041
      6 C         144.2076  142.4871  160.0280 C.ar    1  UNL1        0.0042
      7 O         146.3661  142.5050  157.4062 O.2     1  UNL1       -0.2699
      8 C         144.9617  142.0104  157.5879 C.2     1  UNL1        0.2491
      9 N         144.4763  140.8264  156.8052 N.am    1  UNL1       -0.2732
     10 C         143.0719  140.3318  156.9870 C.3     1  UNL1        0.1111
     11 C         142.5866  139.1478  156.2042 C.3     1  UNL1        0.0942
     12 N         143.5056  138.4584  155.2398 N.3     1  UNL1       -0.2632
     13 C         144.9100  138.9531  155.0581 C.3     1  UNL1        0.0942
     14 C         145.3954  140.1370  155.8408 C.3     1  UNL1        0.1111
     15 C         143.0203  137.2745  154.4572 C.3     1  UNL1        0.1427
     16 C         143.1600  135.8926  155.0235 C.ar    1  UNL1        0.1994
     17 N         142.7514  134.6172  154.3477 N.ar    1  UNL1       -0.1108
     18 N         143.0718  133.4798  155.2717 N.ar    1  UNL1       -0.0452
     19 N         143.6784  134.0522  156.5185 N.ar    1  UNL1       -0.1453
     20 N         143.7329  135.5433  156.3651 N.ar    1  UNL1       -0.1326
     21 C         144.1480  133.2706  157.7095 C.3     1  UNL1        0.2232
     22 C         145.3648  132.3999  157.6029 C.3     1  UNL1        0.3445
     23 F         146.3772  132.3872  158.7096 F       1  UNL1       -0.1961
     24 F         145.5692  131.5420  156.3895 F       1  UNL1       -0.1961
     25 C         141.2857  144.7679  161.4458 C.3     1  UNL1        0.0420
     26 C         140.4929  143.9628  162.4324 C.3     1  UNL1        0.0585
     27 C         140.5706  144.0742  163.9262 C.3     1  UNL1        0.0175
     28 C         139.6090  143.0852  164.5154 C.3     1  UNL1        0.0199
     29 C         138.9370  142.3625  163.3857 C.3     1  UNL1        0.0855
     30 N         139.4833  142.9049  162.0983 N.3     1  UNL1       -0.2971
     31 H         138.7280  143.3096  161.5450 H       1  UNL1        0.1233
     32 C         137.9006  141.2864  163.5198 C.3     1  UNL1        0.1470
     33 O         136.4953  141.5369  163.0590 O.3     1  UNL1       -0.3787
     34 H         135.9575  140.7451  163.2163 H       1  UNL1        0.2108
     35 C         138.2696  139.9598  164.1146 C.ar    1  UNL1        0.0055
     36 C         138.8109  138.8694  163.2382 C.ar    1  UNL1       -0.0019
     37 C         139.1799  137.5427  163.8330 C.ar    1  UNL1       -0.0002
     38 C         139.0076  137.3064  165.3042 C.ar    1  UNL1       -0.0000
     39 C         138.4662  138.3968  166.1806 C.ar    1  UNL1       -0.0002
     40 C         138.0972  139.7235  165.5858 C.ar    1  UNL1       -0.0019
@<TRIPOS>BOND
     1     7     8    2
     2     8     1    1
     3     1     2   ar
     4     2     3   ar
     5     3     4   ar
     6     4    25    1
     7    26    25    1
     8    26    27    1
     9    27    28    1
    10    29    28    1
    11    29    32    1
    12    32    33    1
    13    32    35    1
    14    35    36   ar
    15    36    37   ar
    16    37    38   ar
    17    38    39   ar
    18    39    40   ar
    19    29    30    1
    20     4     5   ar
    21     5     6   ar
    22     8     9   am
    23     9    10    1
    24    10    11    1
    25    11    12    1
    26    12    15    1
    27    15    16    1
    28    16    17   ar
    29    17    18   ar
    30    18    19   ar
    31    19    21    1
    32    21    22    1
    33    22    23    1
    34    22    24    1
    35    19    20   ar
    36    12    13    1
    37    13    14    1
    38     6     1   ar
    39    14     9    1
    40    30    26    1
    41    20    16   ar
    42    40    35   ar
    43    33    34    1
    44    30    31    1
@<TRIPOS>MOLECULE
*****
 40 44 0 0 0
SMALL
GASTEIGER

@<TRIPOS>ATOM
      1 C         140.6818  145.0287  159.6757 C.ar    1  UNL1        0.0536
      2 C         139.9323  145.8286  160.6995 C.ar    1  UNL1        0.0042
      3 C         140.3746  145.8150  162.1327 C.ar    1  UNL1       -0.0041
      4 C         141.5665  145.0016  162.5421 C.ar    1  UNL1       -0.0208
      5 C         142.3161  144.2017  161.5183 C.ar    1  UNL1       -0.0041
      6 C         141.8738  144.2152  160.0851 C.ar    1  UNL1        0.0042
      7 O         140.6309  146.1806  157.3474 O.2     1  UNL1       -0.2699
      8 C         140.2395  145.0422  158.2424 C.2     1  UNL1        0.2491
      9 N         139.4058  143.9174  157.7041 N.am    1  UNL1       -0.2732
     10 C         139.0144  142.7791  158.5991 C.3     1  UNL1        0.1111
     11 C         138.1807  141.6542  158.0607 C.3     1  UNL1        0.0942
     12 N         137.7384  141.6678  156.6275 N.3     1  UNL1       -0.2632
     13 C         138.1298  142.8062  155.7326 C.3     1  UNL1        0.0942
     14 C         138.9635  143.9310  156.2708 C.3     1  UNL1        0.1111
     15 C         136.9047  140.5430  156.0893 C.3     1  UNL1        0.1427
     16 C         135.4189  140.7050  155.9620 C.ar    1  UNL1        0.1994
     17 N         134.7090  141.5785  154.9705 N.ar    1  UNL1       -0.1108
     18 N         133.2335  141.4352  155.1997 N.ar    1  UNL1       -0.0452
     19 N         133.0316  140.4732  156.3327 N.ar    1  UNL1       -0.1453
     20 N         134.3823  140.0219  156.8038 N.ar    1  UNL1       -0.1326
     21 C         131.7109  140.0389  156.8957 C.3     1  UNL1        0.2232
     22 C         131.5128  138.6176  157.3325 C.3     1  UNL1        0.3445
     23 F         130.7981  137.6502  156.4362 F       1  UNL1       -0.1961
     24 F         132.0294  138.1637  158.6655 F       1  UNL1       -0.1961
     25 C         142.0088  144.9881  163.9754 C.3     1  UNL1        0.0420
     26 C         142.4110  143.6968  164.6240 C.3     1  UNL1        0.0585
     27 C         143.7634  143.0531  164.5428 C.3     1  UNL1        0.0175
     28 C         143.7196  141.7809  165.3363 C.3     1  UNL1        0.0199
     29 C         142.3401  141.6384  165.9080 C.3     1  UNL1        0.0855
     30 N         141.5314  142.8224  165.4677 N.3     1  UNL1       -0.2971
     31 H         141.2065  143.3422  166.2830 H       1  UNL1        0.1233
     32 C         141.8547  140.5099  166.7687 C.3     1  UNL1        0.1470
     33 O         142.4042  140.3326  168.1532 O.3     1  UNL1       -0.3787
     34 H         141.9874  139.5623  168.5702 H       1  UNL1        0.2108
     35 C         140.8198  139.5588  166.2451 C.ar    1  UNL1        0.0055
     36 C         139.4060  139.6423  166.7394 C.ar    1  UNL1       -0.0019
     37 C         138.3710  138.6911  166.2158 C.ar    1  UNL1       -0.0002
     38 C         138.7498  137.6565  165.1980 C.ar    1  UNL1       -0.0000
     39 C         140.1636  137.5731  164.7037 C.ar    1  UNL1       -0.0002
     40 C         141.1986  138.5242  165.2272 C.ar    1  UNL1       -0.0019
@<TRIPOS>BOND
     1     7     8    2
     2     8     1    1
     3     1     2   ar
     4     2     3   ar
     5     3     4   ar
     6     4    25    1
     7    26    25    1
     8    26    27    1
     9    27    28    1
    10    29    28    1
    11    29    32    1
    12    32    33    1
    13    32    35    1
    14    35    36   ar
    15    36    37   ar
    16    37    38   ar
    17    38    39   ar
    18    39    40   ar
    19    29    30    1
    20     4     5   ar
    21     5     6   ar
    22     8     9   am
    23     9    10    1
    24    10    11    1
    25    11    12    1
    26    12    15    1
    27    15    16    1
    28    16    17   ar
    29    17    18   ar
    30    18    19   ar
    31    19    21    1
    32    21    22    1
    33    22    23    1
    34    22    24    1
    35    19    20   ar
    36    12    13    1
    37    13    14    1
    38     6     1   ar
    39    14     9    1
    40    30    26    1
    41    20    16   ar
    42    40    35   ar
    43    33    34    1
    44    30    31    1
@<TRIPOS>MOLECULE
*****
 40 44 0 0 0
SMALL
GASTEIGER

@<TRIPOS>ATOM
      1 C         143.9728  142.6097  159.7251 C.ar    1  UNL1        0.0536
      2 C         142.6945  143.3938  159.7531 C.ar    1  UNL1        0.0042
      3 C         142.2458  144.0514  161.0244 C.ar    1  UNL1       -0.0041
      4 C         143.0755  143.9248  162.2676 C.ar    1  UNL1       -0.0208
      5 C         144.3539  143.1407  162.2396 C.ar    1  UNL1       -0.0041
      6 C         144.8025  142.4831  160.9683 C.ar    1  UNL1        0.0042
      7 O         145.5900  142.5070  157.6942 O.2     1  UNL1       -0.2699
      8 C         144.4216  141.9521  158.4537 C.2     1  UNL1        0.2491
      9 N         143.7019  140.7396  157.9420 N.am    1  UNL1       -0.2732
     10 C         142.5335  140.1846  158.7015 C.3     1  UNL1        0.1111
     11 C         141.8139  138.9721  158.1897 C.3     1  UNL1        0.0942
     12 N         142.2626  138.3145  156.9184 N.3     1  UNL1       -0.2632
     13 C         143.4310  138.8695  156.1589 C.3     1  UNL1        0.0942
     14 C         144.1507  140.0819  156.6706 C.3     1  UNL1        0.1111
     15 C         141.5430  137.1020  156.4067 C.3     1  UNL1        0.1427
     16 C         142.1924  135.7526  156.4922 C.ar    1  UNL1        0.1994
     17 N         141.8966  134.5744  155.6122 N.ar    1  UNL1       -0.1108
     18 N         142.7731  133.4381  156.0488 N.ar    1  UNL1       -0.0452
     19 N         143.6106  133.9140  157.1987 N.ar    1  UNL1       -0.1453
     20 N         143.2517  135.3445  157.4727 N.ar    1  UNL1       -0.1326
     21 C         144.6282  133.1021  157.9436 C.3     1  UNL1        0.2232
     22 C         144.8990  131.6837  157.5377 C.3     1  UNL1        0.3445
     23 F         145.4546  131.3861  156.1766 F       1  UNL1       -0.1961
     24 F         144.6143  130.5628  158.4930 F       1  UNL1       -0.1961
     25 C         142.6268  144.5825  163.5390 C.3     1  UNL1        0.0420
     26 C         141.5623  143.9419  164.3795 C.3     1  UNL1        0.0585
     27 C         140.1275  144.3712  164.4630 C.3     1  UNL1        0.0175
     28 C         139.4242  143.4542  165.4193 C.3     1  UNL1        0.0199
     29 C         140.4243  142.4581  165.9268 C.3     1  UNL1        0.0855
     30 N         141.7457  142.7596  165.2842 N.3     1  UNL1       -0.2971
     31 H         142.0588  141.9542  164.7421 H       1  UNL1        0.1233
     32 C         140.1510  141.3544  166.9051 C.3     1  UNL1        0.1470
     33 O         140.3775  141.5783  168.3710 O.3     1  UNL1       -0.3787
     34 H         140.1542  140.7708  168.8597 H       1  UNL1        0.2108
     35 C         139.6511  140.0269  166.4178 C.ar    1  UNL1        0.0055
     36 C         138.4508  139.3961  167.0591 C.ar    1  UNL1       -0.0019
     37 C         137.9509  138.0684  166.5717 C.ar    1  UNL1       -0.0002
     38 C         138.6513  137.3717  165.4431 C.ar    1  UNL1       -0.0000
     39 C         139.8516  138.0025  164.8018 C.ar    1  UNL1       -0.0002
     40 C         140.3516  139.3301  165.2891 C.ar    1  UNL1       -0.0019
@<TRIPOS>BOND
     1     7     8    2
     2     8     1    1
     3     1     2   ar
     4     2     3   ar
     5     3     4   ar
     6     4    25    1
     7    26    25    1
     8    26    27    1
     9    27    28    1
    10    29    28    1
    11    29    32    1
    12    32    33    1
    13    32    35    1
    14    35    36   ar
    15    36    37   ar
    16    37    38   ar
    17    38    39   ar
    18    39    40   ar
    19    29    30    1
    20     4     5   ar
    21     5     6   ar
    22     8     9   am
    23     9    10    1
    24    10    11    1
    25    11    12    1
    26    12    15    1
    27    15    16    1
    28    16    17   ar
    29    17    18   ar
    30    18    19   ar
    31    19    21    1
    32    21    22    1
    33    22    23    1
    34    22    24    1
    35    19    20   ar
    36    12    13    1
    37    13    14    1
    38     6     1   ar
    39    14     9    1
    40    30    26    1
    41    20    16   ar
    42    40    35   ar
    43    33    34    1
    44    30    31    1
@<TRIPOS>MOLECULE
*****
 40 44 0 0 0
SMALL
GASTEIGER

@<TRIPOS>ATOM
      1 C         138.2446  139.1738  162.3575 C.ar    1  UNL1        0.0536
      2 C         137.9173  140.4138  163.1354 C.ar    1  UNL1        0.0042
      3 C         138.0444  140.4169  164.6300 C.ar    1  UNL1       -0.0041
      4 C         138.4988  139.1800  165.3467 C.ar    1  UNL1       -0.0208
      5 C         138.8261  137.9400  164.5688 C.ar    1  UNL1       -0.0041
      6 C         138.6990  137.9369  163.0742 C.ar    1  UNL1        0.0042
      7 O         136.7597  139.1892  160.2256 O.2     1  UNL1       -0.2699
      8 C         138.1175  139.1706  160.8629 C.2     1  UNL1        0.2491
      9 N         139.3482  139.1488  160.0056 N.am    1  UNL1       -0.2732
     10 C         140.7059  139.1301  160.6428 C.3     1  UNL1        0.1111
     11 C         141.9366  139.1083  159.7855 C.3     1  UNL1        0.0942
     12 N         141.8095  139.1052  158.2909 N.3     1  UNL1       -0.2632
     13 C         140.4517  139.1238  157.6536 C.3     1  UNL1        0.0942
     14 C         139.2211  139.1456  158.5109 C.3     1  UNL1        0.1111
     15 C         143.0401  139.0834  157.4336 C.3     1  UNL1        0.1427
     16 C         143.8157  140.3463  157.2025 C.ar    1  UNL1        0.1994
     17 N         143.2525  141.7366  157.1875 N.ar    1  UNL1       -0.1108
     18 N         144.3794  142.6903  156.9216 N.ar    1  UNL1       -0.0452
     19 N         145.6389  141.8895  156.7723 N.ar    1  UNL1       -0.1453
     20 N         145.2905  140.4409  156.9459 N.ar    1  UNL1       -0.1326
     21 C         147.0066  142.4406  156.4976 C.3     1  UNL1        0.2232
     22 C         147.8717  141.8109  155.4463 C.3     1  UNL1        0.3445
     23 F         147.2807  141.4191  154.1245 F       1  UNL1       -0.1961
     24 F         149.3278  141.5730  155.7169 F       1  UNL1       -0.1961
     25 C         138.6259  139.1832  166.8413 C.3     1  UNL1        0.0420
     26 C         139.7138  139.9786  167.4998 C.3     1  UNL1        0.0585
     27 C         139.8234  140.2778  168.9656 C.3     1  UNL1        0.0175
     28 C         141.0605  141.0986  169.1799 C.3     1  UNL1        0.0199
     29 C         141.7155  141.3066  167.8465 C.3     1  UNL1        0.0855
     30 N         140.8832  140.6144  166.8082 N.3     1  UNL1       -0.2971
     31 H         141.4390  139.8990  166.3396 H       1  UNL1        0.1233
     32 C         142.9806  142.0724  167.5956 C.3     1  UNL1        0.1470
     33 O         143.7193  142.6968  168.7421 O.3     1  UNL1       -0.3787
     34 H         144.5092  143.1507  168.4090 H       1  UNL1        0.2108
     35 C         143.5071  142.2138  166.1983 C.ar    1  UNL1        0.0055
     36 C         143.6868  143.5771  165.5989 C.ar    1  UNL1       -0.0019
     37 C         144.2133  143.7186  164.2015 C.ar    1  UNL1       -0.0002
     38 C         144.5601  142.4968  163.4034 C.ar    1  UNL1       -0.0000
     39 C         144.3804  141.1335  164.0028 C.ar    1  UNL1       -0.0002
     40 C         143.8539  140.9920  165.4002 C.ar    1  UNL1       -0.0019
@<TRIPOS>BOND
     1     7     8    2
     2     8     1    1
     3     1     2   ar
     4     2     3   ar
     5     3     4   ar
     6     4    25    1
     7    26    25    1
     8    26    27    1
     9    27    28    1
    10    29    28    1
    11    29    32    1
    12    32    33    1
    13    32    35    1
    14    35    36   ar
    15    36    37   ar
    16    37    38   ar
    17    38    39   ar
    18    39    40   ar
    19    29    30    1
    20     4     5   ar
    21     5     6   ar
    22     8     9   am
    23     9    10    1
    24    10    11    1
    25    11    12    1
    26    12    15    1
    27    15    16    1
    28    16    17   ar
    29    17    18   ar
    30    18    19   ar
    31    19    21    1
    32    21    22    1
    33    22    23    1
    34    22    24    1
    35    19    20   ar
    36    12    13    1
    37    13    14    1
    38     6     1   ar
    39    14     9    1
    40    30    26    1
    41    20    16   ar
    42    40    35   ar
    43    33    34    1
    44    30    31    1
@<TRIPOS>MOLECULE
*****
 40 44 0 0 0
SMALL
GASTEIGER

@<TRIPOS>ATOM
      1 C         139.8993  144.9696  162.6592 C.ar    1  UNL1        0.0536
      2 C         141.2180  144.7410  163.3365 C.ar    1  UNL1        0.0042
      3 C         141.2605  144.1576  164.7177 C.ar    1  UNL1       -0.0041
      4 C         139.9844  143.8027  165.4216 C.ar    1  UNL1       -0.0208
      5 C         138.6657  144.0312  164.7443 C.ar    1  UNL1       -0.0041
      6 C         138.6231  144.6147  163.3631 C.ar    1  UNL1        0.0042
      7 O         139.3413  146.9459  161.0677 O.2     1  UNL1       -0.2699
      8 C         139.8566  145.5530  161.2779 C.2     1  UNL1        0.2491
      9 N         140.3294  144.7436  160.1069 N.am    1  UNL1       -0.2732
     10 C         140.8448  143.3507  160.3171 C.3     1  UNL1        0.1111
     11 C         141.3176  142.5412  159.1460 C.3     1  UNL1        0.0942
     12 N         141.2749  143.1247  157.7649 N.3     1  UNL1       -0.2632
     13 C         140.7595  144.5176  157.5547 C.3     1  UNL1        0.0942
     14 C         140.2868  145.3270  158.7257 C.3     1  UNL1        0.1111
     15 C         141.7477  142.3153  156.5939 C.3     1  UNL1        0.1427
     16 C         143.1840  141.8917  156.5058 C.ar    1  UNL1        0.1994
     17 N         143.8071  140.7326  157.2256 N.ar    1  UNL1       -0.1108
     18 N         145.2576  140.6775  156.8470 N.ar    1  UNL1       -0.0452
     19 N         145.5308  141.8025  155.8933 N.ar    1  UNL1       -0.1453
     20 N         144.2492  142.5530  155.6824 N.ar    1  UNL1       -0.1326
     21 C         146.8533  142.1212  155.2614 C.3     1  UNL1        0.2232
     22 C         148.1061  142.0863  156.0857 C.3     1  UNL1        0.3445
     23 F         149.3003  141.3176  155.6032 F       1  UNL1       -0.1961
     24 F         148.1646  142.8203  157.3926 F       1  UNL1       -0.1961
     25 C         140.0270  143.2192  166.8029 C.3     1  UNL1        0.0420
     26 C         140.9685  142.0935  167.1128 C.3     1  UNL1        0.0585
     27 C         141.6931  141.8815  168.4089 C.3     1  UNL1        0.0175
     28 C         142.5232  140.6390  168.2782 C.3     1  UNL1        0.0199
     29 C         142.3117  140.0830  166.9011 C.3     1  UNL1        0.0855
     30 N         141.3508  140.9819  166.1809 N.3     1  UNL1       -0.2971
     31 H         140.5200  140.4553  165.9111 H       1  UNL1        0.1233
     32 C         142.9491  138.8454  166.3425 C.3     1  UNL1        0.1470
     33 O         143.8978  138.0449  167.1846 O.3     1  UNL1       -0.3787
     34 H         144.2171  137.2829  166.6764 H       1  UNL1        0.2108
     35 C         142.6378  138.4083  164.9419 C.ar    1  UNL1        0.0055
     36 C         141.4037  137.6019  164.6647 C.ar    1  UNL1       -0.0019
     37 C         141.0923  137.1648  163.2640 C.ar    1  UNL1       -0.0002
     38 C         142.0150  137.5340  162.1405 C.ar    1  UNL1       -0.0000
     39 C         143.2491  138.3404  162.4177 C.ar    1  UNL1       -0.0002
     40 C         143.5605  138.7775  163.8184 C.ar    1  UNL1       -0.0019
@<TRIPOS>BOND
     1     7     8    2
     2     8     1    1
     3     1     2   ar
     4     2     3   ar
     5     3     4   ar
     6     4    25    1
     7    26    25    1
     8    26    27    1
     9    27    28    1
    10    29    28    1
    11    29    32    1
    12    32    33    1
    13    32    35    1
    14    35    36   ar
    15    36    37   ar
    16    37    38   ar
    17    38    39   ar
    18    39    40   ar
    19    29    30    1
    20     4     5   ar
    21     5     6   ar
    22     8     9   am
    23     9    10    1
    24    10    11    1
    25    11    12    1
    26    12    15    1
    27    15    16    1
    28    16    17   ar
    29    17    18   ar
    30    18    19   ar
    31    19    21    1
    32    21    22    1
    33    22    23    1
    34    22    24    1
    35    19    20   ar
    36    12    13    1
    37    13    14    1
    38     6     1   ar
    39    14     9    1
    40    30    26    1
    41    20    16   ar
    42    40    35   ar
    43    33    34    1
    44    30    31    1
@<TRIPOS>MOLECULE
*****
 40 44 0 0 0
SMALL
GASTEIGER

@<TRIPOS>ATOM
      1 C         140.4821  139.3348  158.9732 C.ar    1  UNL1        0.0536
      2 C         139.6709  138.6144  157.9375 C.ar    1  UNL1        0.0042
      3 C         140.3544  137.7695  156.9036 C.ar    1  UNL1       -0.0041
      4 C         141.8492  137.6450  156.9055 C.ar    1  UNL1       -0.0208
      5 C         142.6605  138.3654  157.9413 C.ar    1  UNL1       -0.0041
      6 C         141.9770  139.2102  158.9751 C.ar    1  UNL1        0.0042
      7 O         139.4386  141.6020  159.6949 O.2     1  UNL1       -0.2699
      8 C         139.7986  140.1797  160.0071 C.2     1  UNL1        0.2491
      9 N         139.4751  139.6023  161.3532 N.am    1  UNL1       -0.2732
     10 C         139.8351  138.1800  161.6654 C.3     1  UNL1        0.1111
     11 C         139.5115  137.6027  163.0116 C.3     1  UNL1        0.0942
     12 N         138.8280  138.4476  164.0454 N.3     1  UNL1       -0.2632
     13 C         138.4681  139.8699  163.7332 C.3     1  UNL1        0.0942
     14 C         138.7916  140.4473  162.3871 C.3     1  UNL1        0.1111
     15 C         138.5045  137.8702  165.3915 C.3     1  UNL1        0.1427
     16 C         138.7370  138.6819  166.6313 C.ar    1  UNL1        0.1994
     17 N         137.8548  138.7114  167.8442 N.ar    1  UNL1       -0.1108
     18 N         138.4652  139.6543  168.8384 N.ar    1  UNL1       -0.0452
     19 N         139.7245  140.2076  168.2400 N.ar    1  UNL1       -0.1453
     20 N         139.8925  139.6066  166.8760 N.ar    1  UNL1       -0.1326
     21 C         140.6528  141.1894  168.8913 C.3     1  UNL1        0.2232
     22 C         140.1267  142.5038  169.3868 C.3     1  UNL1        0.3445
     23 F         140.1680  143.7113  168.4978 F       1  UNL1       -0.1961
     24 F         139.5593  142.6108  170.7712 F       1  UNL1       -0.1961
     25 C         142.5328  136.8001  155.8716 C.3     1  UNL1        0.0420
     26 C         142.7648  135.3408  156.1294 C.3     1  UNL1        0.0585
     27 C         141.8130  134.2266  155.8091 C.3     1  UNL1        0.0175
     28 C         142.4494  132.9366  156.2346 C.3     1  UNL1        0.0199
     29 C         143.7945  133.2536  156.8179 C.3     1  UNL1        0.0855
     30 N         143.9895  134.7394  156.7529 N.3     1  UNL1       -0.2971
     31 H         144.8089  134.9565  156.1856 H       1  UNL1        0.1233
     32 C         144.7729  132.2592  157.3694 C.3     1  UNL1        0.1470
     33 O         145.8653  132.7140  158.2912 O.3     1  UNL1       -0.3787
     34 H         146.4051  131.9519  158.5537 H       1  UNL1        0.2108
     35 C         144.6589  130.8102  156.9990 C.ar    1  UNL1        0.0055
     36 C         144.9328  130.3723  155.5907 C.ar    1  UNL1       -0.0019
     37 C         144.8188  128.9233  155.2203 C.ar    1  UNL1       -0.0002
     38 C         144.4309  127.9121  156.2581 C.ar    1  UNL1       -0.0000
     39 C         144.1570  128.3500  157.6664 C.ar    1  UNL1       -0.0002
     40 C         144.2710  129.7991  158.0368 C.ar    1  UNL1       -0.0019
@<TRIPOS>BOND
     1     7     8    2
     2     8     1    1
     3     1     2   ar
     4     2     3   ar
     5     3     4   ar
     6     4    25    1
     7    26    25    1
     8    26    27    1
     9    27    28    1
    10    29    28    1
    11    29    32    1
    12    32    33    1
    13    32    35    1
    14    35    36   ar
    15    36    37   ar
    16    37    38   ar
    17    38    39   ar
    18    39    40   ar
    19    29    30    1
    20     4     5   ar
    21     5     6   ar
    22     8     9   am
    23     9    10    1
    24    10    11    1
    25    11    12    1
    26    12    15    1
    27    15    16    1
    28    16    17   ar
    29    17    18   ar
    30    18    19   ar
    31    19    21    1
    32    21    22    1
    33    22    23    1
    34    22    24    1
    35    19    20   ar
    36    12    13    1
    37    13    14    1
    38     6     1   ar
    39    14     9    1
    40    30    26    1
    41    20    16   ar
    42    40    35   ar
    43    33    34    1
    44    30    31    1
@<TRIPOS>MOLECULE
*****
 40 44 0 0 0
SMALL
GASTEIGER

@<TRIPOS>ATOM
      1 C         138.2770  140.4764  159.5463 C.ar    1  UNL1        0.0536
      2 C         138.5197  141.9004  159.9504 C.ar    1  UNL1        0.0042
      3 C         138.3618  142.3103  161.3846 C.ar    1  UNL1       -0.0041
      4 C         137.9612  141.2962  162.4147 C.ar    1  UNL1       -0.0208
      5 C         137.7186  139.8722  162.0107 C.ar    1  UNL1       -0.0041
      6 C         137.8765  139.4623  160.5765 C.ar    1  UNL1        0.0042
      7 O         137.3605  140.3904  157.1168 O.2     1  UNL1       -0.2699
      8 C         138.4349  140.0664  158.1121 C.2     1  UNL1        0.2491
      9 N         139.6673  139.3325  157.6731 N.am    1  UNL1       -0.2732
     10 C         140.7417  139.0086  158.6684 C.3     1  UNL1        0.1111
     11 C         141.9741  138.2746  158.2294 C.3     1  UNL1        0.0942
     12 N         142.1320  137.8647  156.7952 N.3     1  UNL1       -0.2632
     13 C         141.0575  138.1886  155.7999 C.3     1  UNL1        0.0942
     14 C         139.8252  138.9225  156.2389 C.3     1  UNL1        0.1111
     15 C         143.3643  137.1308  156.3562 C.3     1  UNL1        0.1427
     16 C         143.3019  135.6575  156.0811 C.ar    1  UNL1        0.1994
     17 N         142.9957  135.0198  154.7583 N.ar    1  UNL1       -0.1108
     18 N         143.0393  133.5315  154.9402 N.ar    1  UNL1       -0.0452
     19 N         143.3723  133.2494  156.3753 N.ar    1  UNL1       -0.1453
     20 N         143.5346  134.5634  157.0804 N.ar    1  UNL1       -0.1326
     21 C         143.5175  131.8917  156.9962 C.3     1  UNL1        0.2232
     22 C         144.7214  131.5746  157.8329 C.3     1  UNL1        0.3445
     23 F         145.8413  132.5664  157.9420 F       1  UNL1       -0.1961
     24 F         144.8054  130.2655  158.5603 F       1  UNL1       -0.1961
     25 C         137.8033  141.7062  163.8490 C.3     1  UNL1        0.0420
     26 C         138.5345  140.9619  164.9267 C.3     1  UNL1        0.0585
     27 C         138.0393  139.7441  165.6487 C.3     1  UNL1        0.0175
     28 C         139.0881  139.3343  166.6398 C.3     1  UNL1        0.0199
     29 C         140.2315  140.2990  166.5302 C.3     1  UNL1        0.0855
     30 N         139.8894  141.3049  165.4714 N.3     1  UNL1       -0.2971
     31 H         140.5822  141.2696  164.7237 H       1  UNL1        0.1233
     32 C         141.4952  140.2639  167.3376 C.3     1  UNL1        0.1470
     33 O         142.4935  139.1655  167.1208 O.3     1  UNL1       -0.3787
     34 H         143.2469  139.2907  167.7188 H       1  UNL1        0.2108
     35 C         141.7605  141.3270  168.3619 C.ar    1  UNL1        0.0055
     36 C         143.1219  141.4502  168.9795 C.ar    1  UNL1       -0.0019
     37 C         143.3874  142.5134  170.0038 C.ar    1  UNL1       -0.0002
     38 C         142.2914  143.4533  170.4105 C.ar    1  UNL1       -0.0000
     39 C         140.9301  143.3301  169.7929 C.ar    1  UNL1       -0.0002
     40 C         140.6646  142.2669  168.7685 C.ar    1  UNL1       -0.0019
@<TRIPOS>BOND
     1     7     8    2
     2     8     1    1
     3     1     2   ar
     4     2     3   ar
     5     3     4   ar
     6     4    25    1
     7    26    25    1
     8    26    27    1
     9    27    28    1
    10    29    28    1
    11    29    32    1
    12    32    33    1
    13    32    35    1
    14    35    36   ar
    15    36    37   ar
    16    37    38   ar
    17    38    39   ar
    18    39    40   ar
    19    29    30    1
    20     4     5   ar
    21     5     6   ar
    22     8     9   am
    23     9    10    1
    24    10    11    1
    25    11    12    1
    26    12    15    1
    27    15    16    1
    28    16    17   ar
    29    17    18   ar
    30    18    19   ar
    31    19    21    1
    32    21    22    1
    33    22    23    1
    34    22    24    1
    35    19    20   ar
    36    12    13    1
    37    13    14    1
    38     6     1   ar
    39    14     9    1
    40    30    26    1
    41    20    16   ar
    42    40    35   ar
    43    33    34    1
    44    30    31    1
@<TRIPOS>MOLECULE
*****
 40 44 0 0 0
SMALL
GASTEIGER

@<TRIPOS>ATOM
      1 C         138.1222  140.5997  159.5879 C.ar    1  UNL1        0.0536
      2 C         138.3718  142.0070  160.0427 C.ar    1  UNL1        0.0042
      3 C         138.2730  142.3533  161.4988 C.ar    1  UNL1       -0.0041
      4 C         137.9247  141.2921  162.5001 C.ar    1  UNL1       -0.0208
      5 C         137.6751  139.8847  162.0453 C.ar    1  UNL1       -0.0041
      6 C         137.7739  139.5385  160.5892 C.ar    1  UNL1        0.0042
      7 O         137.0925  140.5898  157.2026 O.2     1  UNL1       -0.2699
      8 C         138.2210  140.2534  158.1317 C.2     1  UNL1        0.2491
      9 N         139.4482  139.5706  157.6047 N.am    1  UNL1       -0.2732
     10 C         140.5767  139.2342  158.5339 C.3     1  UNL1        0.1111
     11 C         141.8040  138.5514  158.0068 C.3     1  UNL1        0.0942
     12 N         141.9027  138.2052  156.5507 N.3     1  UNL1       -0.2632
     13 C         140.7742  138.5416  155.6216 C.3     1  UNL1        0.0942
     14 C         139.5470  139.2243  156.1485 C.3     1  UNL1        0.1111
     15 C         143.1300  137.5224  156.0237 C.3     1  UNL1        0.1427
     16 C         143.1624  136.0278  155.9008 C.ar    1  UNL1        0.1994
     17 N         143.0784  135.2461  154.6233 N.ar    1  UNL1       -0.1108
     18 N         143.1487  133.7877  154.9669 N.ar    1  UNL1       -0.0452
     19 N         143.2761  133.6680  156.4566 N.ar    1  UNL1       -0.1453
     20 N         143.2846  135.0525  157.0338 N.ar    1  UNL1       -0.1326
     21 C         143.3773  132.3885  157.2328 C.3     1  UNL1        0.2232
     22 C         144.6192  131.5522  157.1416 C.3     1  UNL1        0.3445
     23 F         145.2968  131.3575  155.8176 F       1  UNL1       -0.1961
     24 F         145.1836  130.9106  158.3744 F       1  UNL1       -0.1961
     25 C         137.8259  141.6384  163.9563 C.3     1  UNL1        0.0420
     26 C         138.7780  141.0246  164.9395 C.3     1  UNL1        0.0585
     27 C         138.4348  139.9925  165.9725 C.3     1  UNL1        0.0175
     28 C         139.6852  139.6651  166.7337 C.3     1  UNL1        0.0199
     29 C         140.8011  140.4947  166.1711 C.3     1  UNL1        0.0855
     30 N         140.2404  141.3349  165.0622 N.3     1  UNL1       -0.2971
     31 H         140.7156  141.1148  164.1869 H       1  UNL1        0.1233
     32 C         142.2272  140.4858  166.6358 C.3     1  UNL1        0.1470
     33 O         142.5549  140.0841  168.0435 O.3     1  UNL1       -0.3787
     34 H         143.5142  140.1326  168.1786 H       1  UNL1        0.2108
     35 C         143.3258  140.8784  165.6930 C.ar    1  UNL1        0.0055
     36 C         144.0270  139.8304  164.8805 C.ar    1  UNL1       -0.0019
     37 C         145.1256  140.2230  163.9377 C.ar    1  UNL1       -0.0002
     38 C         145.5229  141.6635  163.8073 C.ar    1  UNL1       -0.0000
     39 C         144.8217  142.7114  164.6198 C.ar    1  UNL1       -0.0002
     40 C         143.7231  142.3189  165.5627 C.ar    1  UNL1       -0.0019
@<TRIPOS>BOND
     1     7     8    2
     2     8     1    1
     3     1     2   ar
     4     2     3   ar
     5     3     4   ar
     6     4    25    1
     7    26    25    1
     8    26    27    1
     9    27    28    1
    10    29    28    1
    11    29    32    1
    12    32    33    1
    13    32    35    1
    14    35    36   ar
    15    36    37   ar
    16    37    38   ar
    17    38    39   ar
    18    39    40   ar
    19    29    30    1
    20     4     5   ar
    21     5     6   ar
    22     8     9   am
    23     9    10    1
    24    10    11    1
    25    11    12    1
    26    12    15    1
    27    15    16    1
    28    16    17   ar
    29    17    18   ar
    30    18    19   ar
    31    19    21    1
    32    21    22    1
    33    22    23    1
    34    22    24    1
    35    19    20   ar
    36    12    13    1
    37    13    14    1
    38     6     1   ar
    39    14     9    1
    40    30    26    1
    41    20    16   ar
    42    40    35   ar
    43    33    34    1
    44    30    31    1
