@<TRIPOS>MOLECULE
*****
 33 37 0 0 0
SMALL
GASTEIGER

@<TRIPOS>ATOM
      1 C         138.1212  140.4959  163.1845 C.2     1  UNL1        0.2301
      2 O         136.9849  141.4356  162.9093 O.2     1  UNL1       -0.2745
      3 N         139.2902  140.4376  162.2464 N.am    1  UNL1       -0.2764
      4 C         139.3229  141.3190  161.0331 C.3     1  UNL1        0.1107
      5 C         140.4920  141.2607  160.0951 C.3     1  UNL1        0.0939
      6 N         141.6282  140.3210  160.3703 N.3     1  UNL1       -0.2695
      7 C         141.5955  139.4395  161.5836 C.3     1  UNL1        0.0939
      8 C         140.4265  139.4979  162.5216 C.3     1  UNL1        0.1107
      9 C         138.0884  139.6145  164.3977 C.3     1  UNL1        0.1112
     10 C         137.6337  138.0660  166.9266 C.3     1  UNL1        0.0308
     11 C         138.4618  139.3164  166.9515 C.ar    1  UNL1       -0.0238
     12 C         139.0626  139.7926  168.2408 C.ar    1  UNL1        0.0147
     13 C         139.8907  141.0430  168.2657 C.ar    1  UNL1        0.0859
     14 C         140.1181  141.8173  167.0013 C.ar    1  UNL1        0.0189
     15 C         139.5173  141.3411  165.7120 C.ar    1  UNL1       -0.0025
     16 C         138.6892  140.0906  165.6870 C.ar    1  UNL1       -0.0169
     17 N         140.4915  141.5192  169.5551 N.ar    1  UNL1       -0.1886
     18 C         141.7495  142.3237  169.6975 C.ar    1  UNL1        0.2258
     19 N         141.9753  142.5762  171.1587 N.ar    1  UNL1       -0.1045
     20 N         140.8567  141.9279  171.9194 N.ar    1  UNL1       -0.0222
     21 N         139.9397  141.2746  170.9283 N.ar    1  UNL1       -0.0385
     22 C         142.7973  140.2627  159.4322 C.3     1  UNL1        0.0769
     23 C         144.0697  140.9797  159.7740 C.3     1  UNL1        0.0437
     24 C         144.2008  141.6890  161.0892 C.ar    1  UNL1       -0.0210
     25 C         144.8707  141.0075  162.2454 C.ar    1  UNL1       -0.0040
     26 C         145.0018  141.7169  163.5605 C.ar    1  UNL1        0.0059
     27 C         144.4630  143.1078  163.7194 C.ar    1  UNL1        0.0751
     28 C         143.7931  143.7892  162.5633 C.ar    1  UNL1        0.0272
     29 C         143.6620  143.0799  161.2481 C.ar    1  UNL1       -0.0047
     30 C         143.3623  145.1530  163.0154 C.3     1  UNL1        0.2356
     31 O         143.7659  145.3144  164.4510 O.3     1  UNL1       -0.4404
     32 C         144.4462  144.0504  164.8862 C.2     1  UNL1        0.3413
     33 O         145.0106  143.7769  166.2488 O.2     1  UNL1       -0.2449
@<TRIPOS>BOND
     1    10    11    1
     2    11    12   ar
     3    12    13   ar
     4    13    17    1
     5    17    18   ar
     6    18    19   ar
     7    19    20   ar
     8    20    21   ar
     9    13    14   ar
    10    14    15   ar
    11    15    16   ar
    12    16     9    1
    13     9     1    1
    14     1     2    2
    15     1     3   am
    16     3     4    1
    17     4     5    1
    18     5     6    1
    19     6    22    1
    20    22    23    1
    21    23    24    1
    22    24    25   ar
    23    25    26   ar
    24    26    27   ar
    25    27    28   ar
    26    28    29   ar
    27    28    30    1
    28    30    31    1
    29    31    32    1
    30    32    33    2
    31     6     7    1
    32     7     8    1
    33    16    11   ar
    34     8     3    1
    35    21    17   ar
    36    29    24   ar
    37    32    27    1
@<TRIPOS>MOLECULE
*****
 33 37 0 0 0
SMALL
GASTEIGER

@<TRIPOS>ATOM
      1 C         139.7723  137.7235  163.3908 C.2     1  UNL1        0.2301
      2 O         140.9864  136.8482  163.2922 O.2     1  UNL1       -0.2745
      3 N         139.3918  138.6102  162.2423 N.am    1  UNL1       -0.2764
      4 C         140.2253  138.6216  160.9953 C.3     1  UNL1        0.1107
      5 C         139.8448  139.5083  159.8468 C.3     1  UNL1        0.0939
      6 N         138.6307  140.3836  159.9454 N.3     1  UNL1       -0.2695
      7 C         137.7971  140.3723  161.1924 C.3     1  UNL1        0.0939
      8 C         138.1777  139.4856  162.3408 C.3     1  UNL1        0.1107
      9 C         138.9388  137.7122  164.6378 C.3     1  UNL1        0.1112
     10 C         137.2469  137.7156  167.1152 C.3     1  UNL1        0.0308
     11 C         138.3777  138.6915  166.9779 C.ar    1  UNL1       -0.0238
     12 C         138.6626  139.6691  168.0793 C.ar    1  UNL1        0.0147
     13 C         139.7934  140.6450  167.9420 C.ar    1  UNL1        0.0859
     14 C         140.6393  140.6433  166.7033 C.ar    1  UNL1        0.0189
     15 C         140.3545  139.6658  165.6019 C.ar    1  UNL1       -0.0025
     16 C         139.2236  138.6898  165.7392 C.ar    1  UNL1       -0.0169
     17 N         140.0783  141.6227  169.0434 N.ar    1  UNL1       -0.1886
     18 C         141.1342  142.6880  169.0255 C.ar    1  UNL1        0.2258
     19 N         141.0659  143.4304  170.3271 N.ar    1  UNL1       -0.1045
     20 N         139.9677  142.8239  171.1494 N.ar    1  UNL1       -0.0222
     21 N         139.3574  141.7067  170.3561 N.ar    1  UNL1       -0.0385
     22 C         138.2501  141.2703  158.7969 C.3     1  UNL1        0.0769
     23 C         138.6571  142.7140  158.7971 C.3     1  UNL1        0.0437
     24 C         139.7633  143.1813  159.6961 C.ar    1  UNL1       -0.0210
     25 C         141.1909  143.0670  159.2503 C.ar    1  UNL1       -0.0040
     26 C         142.2970  143.5343  160.1492 C.ar    1  UNL1        0.0059
     27 C         141.9755  144.1158  161.4940 C.ar    1  UNL1        0.0751
     28 C         140.5479  144.2301  161.9398 C.ar    1  UNL1        0.0272
     29 C         139.4418  143.7628  161.0408 C.ar    1  UNL1       -0.0047
     30 C         140.5375  144.8413  163.3096 C.3     1  UNL1        0.2356
     31 O         141.9588  145.1048  163.7104 O.3     1  UNL1       -0.4404
     32 C         142.8475  144.6565  162.5883 C.2     1  UNL1        0.3413
     33 O         144.3453  144.7349  162.5646 O.2     1  UNL1       -0.2449
@<TRIPOS>BOND
     1    10    11    1
     2    11    12   ar
     3    12    13   ar
     4    13    17    1
     5    17    18   ar
     6    18    19   ar
     7    19    20   ar
     8    20    21   ar
     9    13    14   ar
    10    14    15   ar
    11    15    16   ar
    12    16     9    1
    13     9     1    1
    14     1     2    2
    15     1     3   am
    16     3     4    1
    17     4     5    1
    18     5     6    1
    19     6    22    1
    20    22    23    1
    21    23    24    1
    22    24    25   ar
    23    25    26   ar
    24    26    27   ar
    25    27    28   ar
    26    28    29   ar
    27    28    30    1
    28    30    31    1
    29    31    32    1
    30    32    33    2
    31     6     7    1
    32     7     8    1
    33    16    11   ar
    34     8     3    1
    35    21    17   ar
    36    29    24   ar
    37    32    27    1
@<TRIPOS>MOLECULE
*****
 33 37 0 0 0
SMALL
GASTEIGER

@<TRIPOS>ATOM
      1 C         144.1409  139.7871  163.2629 C.2     1  UNL1        0.2301
      2 O         145.0432  140.5955  162.3784 O.2     1  UNL1       -0.2745
      3 N         142.8105  139.3203  162.7509 N.am    1  UNL1       -0.2764
      4 C         142.3824  139.6619  161.3544 C.3     1  UNL1        0.1107
      5 C         141.0521  139.1950  160.8425 C.3     1  UNL1        0.0939
      6 N         140.1497  138.3866  161.7269 N.3     1  UNL1       -0.2695
      7 C         140.5778  138.0451  163.1234 C.3     1  UNL1        0.0939
      8 C         141.9081  138.5119  163.6353 C.3     1  UNL1        0.1107
      9 C         144.5689  139.4456  164.6593 C.3     1  UNL1        0.1112
     10 C         143.8856  137.5752  166.9032 C.3     1  UNL1        0.0308
     11 C         143.4295  139.0033  166.9519 C.ar    1  UNL1       -0.0238
     12 C         142.6316  139.4963  168.1226 C.ar    1  UNL1        0.0147
     13 C         142.1755  140.9244  168.1714 C.ar    1  UNL1        0.0859
     14 C         142.5171  141.8595  167.0495 C.ar    1  UNL1        0.0189
     15 C         143.3149  141.3666  165.8788 C.ar    1  UNL1       -0.0025
     16 C         143.7711  139.9385  165.8300 C.ar    1  UNL1       -0.0169
     17 N         141.3776  141.4173  169.3421 N.ar    1  UNL1       -0.1886
     18 C         141.8537  141.4979  170.7623 C.ar    1  UNL1        0.2258
     19 N         140.7340  142.0467  171.5961 N.ar    1  UNL1       -0.1045
     20 N         139.5660  142.3052  170.6912 N.ar    1  UNL1       -0.0222
     21 N         139.9638  141.9163  169.2982 N.ar    1  UNL1       -0.0385
     22 C         138.8193  137.9198  161.2149 C.3     1  UNL1        0.0769
     23 C         137.6209  138.8165  161.3139 C.3     1  UNL1        0.0437
     24 C         137.7984  140.2749  161.6166 C.ar    1  UNL1       -0.0210
     25 C         138.1516  141.2316  160.5167 C.ar    1  UNL1       -0.0040
     26 C         138.3290  142.6900  160.8195 C.ar    1  UNL1        0.0059
     27 C         138.1533  143.1916  162.2222 C.ar    1  UNL1        0.0751
     28 C         137.8002  142.2348  163.3221 C.ar    1  UNL1        0.0272
     29 C         137.6227  140.7765  163.0193 C.ar    1  UNL1       -0.0047
     30 C         137.6920  143.0154  164.5984 C.3     1  UNL1        0.2356
     31 O         137.9783  144.4546  164.2873 O.3     1  UNL1       -0.4404
     32 C         138.2635  144.5635  162.8187 C.2     1  UNL1        0.3413
     33 O         138.5996  145.8231  162.0768 O.2     1  UNL1       -0.2449
@<TRIPOS>BOND
     1    10    11    1
     2    11    12   ar
     3    12    13   ar
     4    13    17    1
     5    17    18   ar
     6    18    19   ar
     7    19    20   ar
     8    20    21   ar
     9    13    14   ar
    10    14    15   ar
    11    15    16   ar
    12    16     9    1
    13     9     1    1
    14     1     2    2
    15     1     3   am
    16     3     4    1
    17     4     5    1
    18     5     6    1
    19     6    22    1
    20    22    23    1
    21    23    24    1
    22    24    25   ar
    23    25    26   ar
    24    26    27   ar
    25    27    28   ar
    26    28    29   ar
    27    28    30    1
    28    30    31    1
    29    31    32    1
    30    32    33    2
    31     6     7    1
    32     7     8    1
    33    16    11   ar
    34     8     3    1
    35    21    17   ar
    36    29    24   ar
    37    32    27    1
@<TRIPOS>MOLECULE
*****
 33 37 0 0 0
SMALL
GASTEIGER

@<TRIPOS>ATOM
      1 C         140.4540  137.9717  163.3093 C.2     1  UNL1        0.2301
      2 O         139.0315  137.6007  163.0112 O.2     1  UNL1       -0.2745
      3 N         141.3073  138.5902  162.2417 N.am    1  UNL1       -0.2764
      4 C         140.7380  138.8378  160.8763 C.3     1  UNL1        0.1107
      5 C         141.5912  139.4563  159.8089 C.3     1  UNL1        0.0939
      6 N         143.0137  139.8272  160.1069 N.3     1  UNL1       -0.2695
      7 C         143.5830  139.5797  161.4724 C.3     1  UNL1        0.0939
      8 C         142.7298  138.9612  162.5398 C.3     1  UNL1        0.1107
      9 C         141.0233  137.7241  164.6747 C.3     1  UNL1        0.1112
     10 C         143.3595  138.6548  166.3106 C.3     1  UNL1        0.0308
     11 C         141.9885  139.1983  166.5840 C.ar    1  UNL1       -0.0238
     12 C         141.7854  140.2072  167.6754 C.ar    1  UNL1        0.0147
     13 C         140.4144  140.7507  167.9488 C.ar    1  UNL1        0.0859
     14 C         139.2463  140.2853  167.1308 C.ar    1  UNL1        0.0189
     15 C         139.4493  139.2765  166.0395 C.ar    1  UNL1       -0.0025
     16 C         140.8204  138.7330  165.7661 C.ar    1  UNL1       -0.0169
     17 N         140.2114  141.7595  169.0401 N.ar    1  UNL1       -0.1886
     18 C         140.4576  143.2354  168.9335 C.ar    1  UNL1        0.2258
     19 N         140.1249  143.8577  170.2571 N.ar    1  UNL1       -0.1045
     20 N         139.6731  142.7664  171.1818 N.ar    1  UNL1       -0.0222
     21 N         139.7265  141.4697  170.4297 N.ar    1  UNL1       -0.0385
     22 C         143.8669  140.4457  159.0394 C.3     1  UNL1        0.0769
     23 C         144.1651  141.9153  159.0754 C.3     1  UNL1        0.0437
     24 C         143.1758  142.8668  159.6803 C.ar    1  UNL1       -0.0210
     25 C         142.0297  143.3794  158.8596 C.ar    1  UNL1       -0.0040
     26 C         141.0404  144.3308  159.4646 C.ar    1  UNL1        0.0059
     27 C         141.1972  144.7697  160.8904 C.ar    1  UNL1        0.0751
     28 C         142.3433  144.2571  161.7111 C.ar    1  UNL1        0.0272
     29 C         143.3326  143.3057  161.1061 C.ar    1  UNL1       -0.0047
     30 C         142.2404  144.8622  163.0798 C.3     1  UNL1        0.2356
     31 O         141.0306  145.7487  163.1049 O.3     1  UNL1       -0.4404
     32 C         140.3859  145.6915  161.7518 C.2     1  UNL1        0.3413
     33 O         139.1474  146.4271  161.3335 O.2     1  UNL1       -0.2449
@<TRIPOS>BOND
     1    10    11    1
     2    11    12   ar
     3    12    13   ar
     4    13    17    1
     5    17    18   ar
     6    18    19   ar
     7    19    20   ar
     8    20    21   ar
     9    13    14   ar
    10    14    15   ar
    11    15    16   ar
    12    16     9    1
    13     9     1    1
    14     1     2    2
    15     1     3   am
    16     3     4    1
    17     4     5    1
    18     5     6    1
    19     6    22    1
    20    22    23    1
    21    23    24    1
    22    24    25   ar
    23    25    26   ar
    24    26    27   ar
    25    27    28   ar
    26    28    29   ar
    27    28    30    1
    28    30    31    1
    29    31    32    1
    30    32    33    2
    31     6     7    1
    32     7     8    1
    33    16    11   ar
    34     8     3    1
    35    21    17   ar
    36    29    24   ar
    37    32    27    1
@<TRIPOS>MOLECULE
*****
 33 37 0 0 0
SMALL
GASTEIGER

@<TRIPOS>ATOM
      1 C         144.1158  139.8751  163.1819 C.2     1  UNL1        0.2301
      2 O         145.1902  140.6306  162.4574 O.2     1  UNL1       -0.2745
      3 N         142.7816  139.6592  162.5312 N.am    1  UNL1       -0.2764
      4 C         142.5218  140.1989  161.1560 C.3     1  UNL1        0.1107
      5 C         141.1876  139.9831  160.5054 C.3     1  UNL1        0.0939
      6 N         140.1133  139.2275  161.2299 N.3     1  UNL1       -0.2695
      7 C         140.3731  138.6878  162.6051 C.3     1  UNL1        0.0939
      8 C         141.7073  138.9036  163.2557 C.3     1  UNL1        0.1107
      9 C         144.3756  139.3353  164.5571 C.3     1  UNL1        0.1112
     10 C         143.7778  137.6270  166.9497 C.3     1  UNL1        0.0308
     11 C         143.3666  139.0695  166.9364 C.ar    1  UNL1       -0.0238
     12 C         142.6565  139.6578  168.1195 C.ar    1  UNL1        0.0147
     13 C         142.2454  141.1003  168.1063 C.ar    1  UNL1        0.0859
     14 C         142.5443  141.9545  166.9101 C.ar    1  UNL1        0.0189
     15 C         143.2544  141.3662  165.7270 C.ar    1  UNL1       -0.0025
     16 C         143.6656  139.9236  165.7402 C.ar    1  UNL1       -0.0169
     17 N         141.5353  141.6887  169.2894 N.ar    1  UNL1       -0.1886
     18 C         140.7006  142.9350  169.2865 C.ar    1  UNL1        0.2258
     19 N         140.1846  143.1506  170.6783 N.ar    1  UNL1       -0.1045
     20 N         140.7005  142.0375  171.5415 N.ar    1  UNL1       -0.0222
     21 N         141.5352  141.1340  170.6831 N.ar    1  UNL1       -0.0385
     22 C         138.7791  139.0117  160.5791 C.3     1  UNL1        0.0769
     23 C         137.6503  139.9617  160.8497 C.3     1  UNL1        0.0437
     24 C         137.8562  141.1289  161.7691 C.ar    1  UNL1       -0.0210
     25 C         137.3858  141.0553  163.1915 C.ar    1  UNL1       -0.0040
     26 C         137.5918  142.2225  164.1108 C.ar    1  UNL1        0.0059
     27 C         138.2682  143.4632  163.6078 C.ar    1  UNL1        0.0751
     28 C         138.7387  143.5368  162.1854 C.ar    1  UNL1        0.0272
     29 C         138.5327  142.3696  161.2661 C.ar    1  UNL1       -0.0047
     30 C         139.3686  144.8816  161.9745 C.3     1  UNL1        0.2356
     31 O         139.2874  145.6393  163.2666 O.3     1  UNL1       -0.4404
     32 C         138.6073  144.7627  164.2760 C.2     1  UNL1        0.3413
     33 O         138.3173  145.1223  165.7031 O.2     1  UNL1       -0.2449
@<TRIPOS>BOND
     1    10    11    1
     2    11    12   ar
     3    12    13   ar
     4    13    17    1
     5    17    18   ar
     6    18    19   ar
     7    19    20   ar
     8    20    21   ar
     9    13    14   ar
    10    14    15   ar
    11    15    16   ar
    12    16     9    1
    13     9     1    1
    14     1     2    2
    15     1     3   am
    16     3     4    1
    17     4     5    1
    18     5     6    1
    19     6    22    1
    20    22    23    1
    21    23    24    1
    22    24    25   ar
    23    25    26   ar
    24    26    27   ar
    25    27    28   ar
    26    28    29   ar
    27    28    30    1
    28    30    31    1
    29    31    32    1
    30    32    33    2
    31     6     7    1
    32     7     8    1
    33    16    11   ar
    34     8     3    1
    35    21    17   ar
    36    29    24   ar
    37    32    27    1
@<TRIPOS>MOLECULE
*****
 33 37 0 0 0
SMALL
GASTEIGER

@<TRIPOS>ATOM
      1 C         139.6015  138.4930  163.0400 C.2     1  UNL1        0.2301
      2 O         138.1913  139.0039  163.0186 O.2     1  UNL1       -0.2745
      3 N         140.3676  138.3520  161.7581 N.am    1  UNL1       -0.2764
      4 C         139.7235  138.7218  160.4549 C.3     1  UNL1        0.1107
      5 C         140.4897  138.5808  159.1730 C.3     1  UNL1        0.0939
      6 N         141.8998  138.0700  159.1944 N.3     1  UNL1       -0.2695
      7 C         142.5439  137.7001  160.4976 C.3     1  UNL1        0.0939
      8 C         141.7778  137.8412  161.7794 C.3     1  UNL1        0.1107
      9 C         140.2455  138.1232  164.3432 C.3     1  UNL1        0.1112
     10 C         138.0363  137.8639  166.3561 C.3     1  UNL1        0.0308
     11 C         139.0728  138.9365  166.5141 C.ar    1  UNL1       -0.0238
     12 C         139.0047  139.8796  167.6787 C.ar    1  UNL1        0.0147
     13 C         140.0412  140.9523  167.8367 C.ar    1  UNL1        0.0859
     14 C         141.1458  141.0820  166.8302 C.ar    1  UNL1        0.0189
     15 C         141.2139  140.1390  165.6657 C.ar    1  UNL1       -0.0025
     16 C         140.1774  139.0662  165.5077 C.ar    1  UNL1       -0.0169
     17 N         139.9731  141.8954  169.0012 N.ar    1  UNL1       -0.1886
     18 C         140.4682  143.3112  169.0192 C.ar    1  UNL1        0.2258
     19 N         140.1990  143.8791  170.3812 N.ar    1  UNL1       -0.1045
     20 N         139.5375  142.8142  171.2050 N.ar    1  UNL1       -0.0222
     21 N         139.3979  141.5882  170.3520 N.ar    1  UNL1       -0.0385
     22 C         142.6659  137.9289  157.9125 C.3     1  UNL1        0.0769
     23 C         142.0836  137.1465  156.7729 C.3     1  UNL1        0.0437
     24 C         142.6081  135.7769  156.4581 C.ar    1  UNL1       -0.0210
     25 C         142.2706  135.1272  155.1489 C.ar    1  UNL1       -0.0040
     26 C         142.7950  133.7576  154.8341 C.ar    1  UNL1        0.0059
     27 C         143.6569  133.0377  155.8285 C.ar    1  UNL1        0.0751
     28 C         143.9944  133.6874  157.1377 C.ar    1  UNL1        0.0272
     29 C         143.4700  135.0569  157.4525 C.ar    1  UNL1       -0.0047
     30 C         144.8600  132.7408  157.9154 C.3     1  UNL1        0.2356
     31 O         145.0574  131.5060  157.0868 O.3     1  UNL1       -0.4404
     32 C         144.3139  131.6895  155.7971 C.2     1  UNL1        0.3413
     33 O         144.2403  130.6988  154.6732 O.2     1  UNL1       -0.2449
@<TRIPOS>BOND
     1    10    11    1
     2    11    12   ar
     3    12    13   ar
     4    13    17    1
     5    17    18   ar
     6    18    19   ar
     7    19    20   ar
     8    20    21   ar
     9    13    14   ar
    10    14    15   ar
    11    15    16   ar
    12    16     9    1
    13     9     1    1
    14     1     2    2
    15     1     3   am
    16     3     4    1
    17     4     5    1
    18     5     6    1
    19     6    22    1
    20    22    23    1
    21    23    24    1
    22    24    25   ar
    23    25    26   ar
    24    26    27   ar
    25    27    28   ar
    26    28    29   ar
    27    28    30    1
    28    30    31    1
    29    31    32    1
    30    32    33    2
    31     6     7    1
    32     7     8    1
    33    16    11   ar
    34     8     3    1
    35    21    17   ar
    36    29    24   ar
    37    32    27    1
@<TRIPOS>MOLECULE
*****
 33 37 0 0 0
SMALL
GASTEIGER

@<TRIPOS>ATOM
      1 C         140.4808  137.8279  163.4424 C.2     1  UNL1        0.2301
      2 O         139.0229  137.5000  163.3114 O.2     1  UNL1       -0.2745
      3 N         141.2401  138.3544  162.2607 N.am    1  UNL1       -0.2764
      4 C         140.5416  138.5530  160.9482 C.3     1  UNL1        0.1107
      5 C         141.3010  139.0795  159.7667 C.3     1  UNL1        0.0939
      6 N         142.7588  139.4075  159.8976 N.3     1  UNL1       -0.2695
      7 C         143.4573  139.2089  161.2101 C.3     1  UNL1        0.0939
      8 C         142.6980  138.6823  162.3916 C.3     1  UNL1        0.1107
      9 C         141.1793  137.6293  164.7548 C.3     1  UNL1        0.1112
     10 C         143.7564  138.3210  166.1258 C.3     1  UNL1        0.0308
     11 C         142.5078  139.0885  166.4446 C.ar    1  UNL1       -0.0238
     12 C         142.5477  140.2020  167.4490 C.ar    1  UNL1        0.0147
     13 C         141.2990  140.9695  167.7678 C.ar    1  UNL1        0.0859
     14 C         140.0104  140.6237  167.0823 C.ar    1  UNL1        0.0189
     15 C         139.9705  139.5103  166.0780 C.ar    1  UNL1       -0.0025
     16 C         141.2192  138.7427  165.7591 C.ar    1  UNL1       -0.0169
     17 N         141.3389  142.0830  168.7722 N.ar    1  UNL1       -0.1886
     18 C         142.3733  142.2682  169.8426 C.ar    1  UNL1        0.2258
     19 N         142.0252  143.5063  170.6144 N.ar    1  UNL1       -0.1045
     20 N         140.7756  144.0864  170.0209 N.ar    1  UNL1       -0.0222
     21 N         140.3515  143.2068  168.8824 N.ar    1  UNL1       -0.0385
     22 C         143.5182  139.9340  158.7160 C.3     1  UNL1        0.0769
     23 C         143.8506  141.3940  158.6281 C.3     1  UNL1        0.0437
     24 C         143.6882  142.2740  159.8320 C.ar    1  UNL1       -0.0210
     25 C         144.8450  142.4952  160.7609 C.ar    1  UNL1       -0.0040
     26 C         144.6826  143.3751  161.9647 C.ar    1  UNL1        0.0059
     27 C         143.3634  144.0339  162.2397 C.ar    1  UNL1        0.0751
     28 C         142.2066  143.8128  161.3108 C.ar    1  UNL1        0.0272
     29 C         142.3690  142.9328  160.1070 C.ar    1  UNL1       -0.0047
     30 C         141.0356  144.5894  161.8358 C.3     1  UNL1        0.2356
     31 O         141.4686  145.2905  163.0892 O.3     1  UNL1       -0.4404
     32 C         142.9073  144.9472  163.3388 C.2     1  UNL1        0.3413
     33 O         143.7432  145.4321  164.4861 O.2     1  UNL1       -0.2449
@<TRIPOS>BOND
     1    10    11    1
     2    11    12   ar
     3    12    13   ar
     4    13    17    1
     5    17    18   ar
     6    18    19   ar
     7    19    20   ar
     8    20    21   ar
     9    13    14   ar
    10    14    15   ar
    11    15    16   ar
    12    16     9    1
    13     9     1    1
    14     1     2    2
    15     1     3   am
    16     3     4    1
    17     4     5    1
    18     5     6    1
    19     6    22    1
    20    22    23    1
    21    23    24    1
    22    24    25   ar
    23    25    26   ar
    24    26    27   ar
    25    27    28   ar
    26    28    29   ar
    27    28    30    1
    28    30    31    1
    29    31    32    1
    30    32    33    2
    31     6     7    1
    32     7     8    1
    33    16    11   ar
    34     8     3    1
    35    21    17   ar
    36    29    24   ar
    37    32    27    1
@<TRIPOS>MOLECULE
*****
 33 37 0 0 0
SMALL
GASTEIGER

@<TRIPOS>ATOM
      1 C         143.0042  143.9305  162.2405 C.2     1  UNL1        0.2301
      2 O         144.4921  144.0954  162.1463 O.2     1  UNL1       -0.2745
      3 N         142.2840  143.0484  161.2642 N.am    1  UNL1       -0.2764
      4 C         143.0517  142.3311  160.1936 C.3     1  UNL1        0.1107
      5 C         142.3315  141.4490  159.2174 C.3     1  UNL1        0.0939
      6 N         140.8436  141.2842  159.3117 N.3     1  UNL1       -0.2695
      7 C         140.0758  142.0014  160.3822 C.3     1  UNL1        0.0939
      8 C         140.7961  142.8835  161.3585 C.3     1  UNL1        0.1107
      9 C         142.2365  144.6477  163.3111 C.3     1  UNL1        0.1112
     10 C         139.3681  144.9110  164.1494 C.3     1  UNL1        0.0308
     11 C         140.2977  144.0251  164.9245 C.ar    1  UNL1       -0.0238
     12 C         139.7931  143.2707  166.1189 C.ar    1  UNL1        0.0147
     13 C         140.7227  142.3848  166.8940 C.ar    1  UNL1        0.0859
     14 C         142.1569  142.2531  166.4748 C.ar    1  UNL1        0.0189
     15 C         142.6615  143.0074  165.2806 C.ar    1  UNL1       -0.0025
     16 C         141.7319  143.8934  164.5054 C.ar    1  UNL1       -0.0169
     17 N         140.2181  141.6304  168.0884 N.ar    1  UNL1       -0.1886
     18 C         139.6973  140.2237  168.0872 C.ar    1  UNL1        0.2258
     19 N         139.3031  139.8742  169.4916 N.ar    1  UNL1       -0.1045
     20 N         139.5803  141.0649  170.3608 N.ar    1  UNL1       -0.0222
     21 N         140.1458  142.1502  169.4935 N.ar    1  UNL1       -0.0385
     22 C         140.1233  140.4020  158.3353 C.3     1  UNL1        0.0769
     23 C         139.6527  139.0422  158.7588 C.3     1  UNL1        0.0437
     24 C         139.5250  138.7131  160.2167 C.ar    1  UNL1       -0.0210
     25 C         138.2078  138.8887  160.9126 C.ar    1  UNL1       -0.0040
     26 C         138.0801  138.5596  162.3704 C.ar    1  UNL1        0.0059
     27 C         139.2696  138.0550  163.1324 C.ar    1  UNL1        0.0751
     28 C         140.5867  137.8794  162.4365 C.ar    1  UNL1        0.0272
     29 C         140.7144  138.2085  160.9787 C.ar    1  UNL1       -0.0047
     30 C         141.5767  137.3674  163.4404 C.3     1  UNL1        0.2356
     31 O         140.8714  137.2265  164.7567 O.3     1  UNL1       -0.4404
     32 C         139.4455  137.6514  164.5664 C.2     1  UNL1        0.3413
     33 O         138.3822  137.6696  165.6243 O.2     1  UNL1       -0.2449
@<TRIPOS>BOND
     1    10    11    1
     2    11    12   ar
     3    12    13   ar
     4    13    17    1
     5    17    18   ar
     6    18    19   ar
     7    19    20   ar
     8    20    21   ar
     9    13    14   ar
    10    14    15   ar
    11    15    16   ar
    12    16     9    1
    13     9     1    1
    14     1     2    2
    15     1     3   am
    16     3     4    1
    17     4     5    1
    18     5     6    1
    19     6    22    1
    20    22    23    1
    21    23    24    1
    22    24    25   ar
    23    25    26   ar
    24    26    27   ar
    25    27    28   ar
    26    28    29   ar
    27    28    30    1
    28    30    31    1
    29    31    32    1
    30    32    33    2
    31     6     7    1
    32     7     8    1
    33    16    11   ar
    34     8     3    1
    35    21    17   ar
    36    29    24   ar
    37    32    27    1
@<TRIPOS>MOLECULE
*****
 33 37 0 0 0
SMALL
GASTEIGER

@<TRIPOS>ATOM
      1 C         138.2452  140.5762  163.1029 C.2     1  UNL1        0.2301
      2 O         137.2334  141.6793  163.0053 O.2     1  UNL1       -0.2745
      3 N         139.2471  140.3781  162.0042 N.am    1  UNL1       -0.2764
      4 C         139.2373  141.2831  160.8081 C.3     1  UNL1        0.1107
      5 C         140.2392  141.0850  159.7095 C.3     1  UNL1        0.0939
      6 N         141.2510  139.9819  159.8071 N.3     1  UNL1       -0.2695
      7 C         141.2608  139.0769  161.0033 C.3     1  UNL1        0.0939
      8 C         140.2589  139.2750  162.1018 C.3     1  UNL1        0.1107
      9 C         138.2550  139.6711  164.2990 C.3     1  UNL1        0.1112
     10 C         137.7384  138.1312  166.8212 C.3     1  UNL1        0.0308
     11 C         138.5570  139.3873  166.8638 C.ar    1  UNL1       -0.0238
     12 C         139.1174  139.8735  168.1675 C.ar    1  UNL1        0.0147
     13 C         139.9361  141.1297  168.2101 C.ar    1  UNL1        0.0859
     14 C         140.1944  141.8997  166.9490 C.ar    1  UNL1        0.0189
     15 C         139.6340  141.4135  165.6453 C.ar    1  UNL1       -0.0025
     16 C         138.8153  140.1573  165.6027 C.ar    1  UNL1       -0.0169
     17 N         140.4965  141.6159  169.5138 N.ar    1  UNL1       -0.1886
     18 C         141.8755  142.1648  169.7307 C.ar    1  UNL1        0.2258
     19 N         142.0076  142.5267  171.1804 N.ar    1  UNL1       -0.1045
     20 N         140.7102  142.2014  171.8594 N.ar    1  UNL1       -0.0222
     21 N         139.7763  141.6385  170.8294 N.ar    1  UNL1       -0.0385
     22 C         142.2529  139.7838  158.7085 C.3     1  UNL1        0.0769
     23 C         141.7882  139.4726  157.3167 C.3     1  UNL1        0.0437
     24 C         141.7707  138.0533  156.8316 C.ar    1  UNL1       -0.0210
     25 C         140.8263  137.6453  155.7400 C.ar    1  UNL1       -0.0040
     26 C         140.8090  136.2260  155.2549 C.ar    1  UNL1        0.0059
     27 C         141.7360  135.2147  155.8615 C.ar    1  UNL1        0.0751
     28 C         142.6804  135.6227  156.9531 C.ar    1  UNL1        0.0272
     29 C         142.6978  137.0419  157.4381 C.ar    1  UNL1       -0.0047
     30 C         143.4717  134.4141  157.3571 C.3     1  UNL1        0.2356
     31 O         143.0163  133.2592  156.5151 O.3     1  UNL1       -0.4404
     32 C         141.9436  133.7540  155.5908 C.2     1  UNL1        0.3413
     33 O         141.2077  132.9323  154.5743 O.2     1  UNL1       -0.2449
@<TRIPOS>BOND
     1    10    11    1
     2    11    12   ar
     3    12    13   ar
     4    13    17    1
     5    17    18   ar
     6    18    19   ar
     7    19    20   ar
     8    20    21   ar
     9    13    14   ar
    10    14    15   ar
    11    15    16   ar
    12    16     9    1
    13     9     1    1
    14     1     2    2
    15     1     3   am
    16     3     4    1
    17     4     5    1
    18     5     6    1
    19     6    22    1
    20    22    23    1
    21    23    24    1
    22    24    25   ar
    23    25    26   ar
    24    26    27   ar
    25    27    28   ar
    26    28    29   ar
    27    28    30    1
    28    30    31    1
    29    31    32    1
    30    32    33    2
    31     6     7    1
    32     7     8    1
    33    16    11   ar
    34     8     3    1
    35    21    17   ar
    36    29    24   ar
    37    32    27    1
