@<TRIPOS>MOLECULE
*****
 37 40 0 0 0
SMALL
GASTEIGER

@<TRIPOS>ATOM
      1 C         138.0483  141.0116  162.9964 C.ar    1  UNL1        0.1534
      2 C         137.5424  140.0962  164.0716 C.ar    1  UNL1        0.0591
      3 C         138.2306  140.0514  165.4036 C.ar    1  UNL1        0.1072
      4 N         137.7247  139.1360  166.4788 N.ar    1  UNL1       -0.1477
      5 N         138.4129  139.0912  167.8109 N.ar    1  UNL1       -0.1421
      6 C         139.6071  139.9620  168.0677 C.ar    1  UNL1        0.1690
      7 C         140.1130  140.8774  166.9925 C.ar    1  UNL1        0.0740
      8 C         139.4247  140.9221  165.6605 C.ar    1  UNL1        0.0359
      9 C         139.9306  141.8375  164.5853 C.ar    1  UNL1        0.0204
     10 C         139.2424  141.8822  163.2532 C.ar    1  UNL1        0.0825
     11 N         139.7483  142.7977  162.1780 N.pl3   1  UNL1       -0.3023
     12 C         140.5485  142.2437  161.0366 C.3     1  UNL1        0.1082
     13 C         141.0544  143.1591  159.9614 C.3     1  UNL1        0.0939
     14 N         140.7602  144.6285  160.0276 N.3     1  UNL1       -0.2677
     15 C         139.9601  145.1825  161.1691 C.3     1  UNL1        0.0939
     16 C         139.4541  144.2670  162.2443 C.3     1  UNL1        0.1082
     17 C         141.2661  145.5439  158.9524 C.3     1  UNL1        0.1043
     18 C         141.8871  144.9729  157.7121 C.3     1  UNL1        0.1544
     19 O         143.3074  144.4913  157.7379 O.3     1  UNL1       -0.3805
     20 H         143.9014  145.2439  157.8851 H       1  UNL1        0.2105
     21 C         140.2953  139.9172  169.3998 C.2     1  UNL1        0.2635
     22 N         139.4851  139.8818  170.6617 N.am    1  UNL1       -0.3240
     23 O         141.7936  139.9079  169.4699 O.2     1  UNL1       -0.2686
     24 H         138.5017  139.8880  170.6157 H       1  UNL1        0.1453
     25 H         139.9368  139.8525  171.5360 H       1  UNL1        0.1453
     26 C         137.5269  139.9234  160.6955 C.3     1  UNL1        0.2525
     27 O         137.3601  141.0563  161.6643 O.3     1  UNL1       -0.4701
     28 N         141.3071  141.7480  167.2494 N.pl3   1  UNL1       -0.3094
     29 H         141.3253  142.3388  168.0367 H       1  UNL1        0.1523
     30 C         142.4735  141.7185  166.3067 C.ar    1  UNL1        0.0761
     31 C         143.0807  143.0026  165.8244 C.ar    1  UNL1        0.0166
     32 C         144.2470  142.9731  164.8817 C.ar    1  UNL1       -0.0028
     33 C         144.8063  141.6596  164.4213 C.ar    1  UNL1       -0.0195
     34 C         145.9727  141.6302  163.4787 C.3     1  UNL1        0.0311
     35 C         144.1992  140.3756  164.9036 C.ar    1  UNL1        0.0267
     36 C         143.0327  140.4050  165.8463 C.ar    1  UNL1        0.1531
     37 F         142.4256  139.1210  166.3286 F       1  UNL1       -0.2029
@<TRIPOS>BOND
     1    26    27    1
     2    27     1    1
     3     1     2   ar
     4     2     3   ar
     5     3     4   ar
     6     4     5   ar
     7     5     6   ar
     8     6    21    1
     9    21    22   am
    10    21    23    2
    11     6     7   ar
    12     7    28    1
    13    28    30    1
    14    30    31   ar
    15    31    32   ar
    16    32    33   ar
    17    33    34    1
    18    33    35   ar
    19    35    36   ar
    20    36    37    1
    21     7     8   ar
    22     8     9   ar
    23     9    10   ar
    24    10    11    1
    25    11    12    1
    26    12    13    1
    27    13    14    1
    28    14    17    1
    29    17    18    1
    30    18    19    1
    31    14    15    1
    32    15    16    1
    33    10     1   ar
    34    16    11    1
    35     8     3   ar
    36    36    30   ar
    37    22    24    1
    38    22    25    1
    39    28    29    1
    40    19    20    1
@<TRIPOS>MOLECULE
*****
 37 40 0 0 0
SMALL
GASTEIGER

@<TRIPOS>ATOM
      1 C         139.0808  138.2634  164.0095 C.ar    1  UNL1        0.1534
      2 C         138.3440  138.2343  165.3157 C.ar    1  UNL1        0.0591
      3 C         138.9063  138.9467  166.5100 C.ar    1  UNL1        0.1072
      4 N         138.1694  138.9175  167.8163 N.ar    1  UNL1       -0.1477
      5 N         138.7316  139.6299  169.0106 N.ar    1  UNL1       -0.1421
      6 C         140.0308  140.3715  168.8987 C.ar    1  UNL1        0.1690
      7 C         140.7676  140.4006  167.5925 C.ar    1  UNL1        0.0740
      8 C         140.2053  139.6882  166.3981 C.ar    1  UNL1        0.0359
      9 C         140.9421  139.7174  165.0919 C.ar    1  UNL1        0.0204
     10 C         140.3799  139.0050  163.8976 C.ar    1  UNL1        0.0825
     11 N         141.1168  139.0341  162.5914 N.pl3   1  UNL1       -0.3023
     12 C         141.0013  140.2288  161.6917 C.3     1  UNL1        0.1082
     13 C         141.7381  140.2580  160.3855 C.3     1  UNL1        0.0939
     14 N         142.5905  139.0925  159.9789 N.3     1  UNL1       -0.2677
     15 C         142.7059  137.8979  160.8786 C.3     1  UNL1        0.0939
     16 C         141.9691  137.8687  162.1849 C.3     1  UNL1        0.1082
     17 C         143.3273  139.1218  158.6727 C.3     1  UNL1        0.1043
     18 C         144.0515  140.3647  158.2477 C.3     1  UNL1        0.1544
     19 O         145.1985  140.2725  157.2856 O.3     1  UNL1       -0.3805
     20 H         145.9313  139.7918  157.7012 H       1  UNL1        0.2105
     21 C         140.5930  141.0839  170.0930 C.2     1  UNL1        0.2635
     22 N         140.5328  140.4408  171.4469 N.am    1  UNL1       -0.3240
     23 O         141.2154  142.4393  169.9334 O.2     1  UNL1       -0.2686
     24 H         140.1243  139.5512  171.5516 H       1  UNL1        0.1453
     25 H         140.9018  140.9084  172.2307 H       1  UNL1        0.1453
     26 C         137.7557  138.3171  161.7755 C.3     1  UNL1        0.2525
     27 O         138.5186  137.5510  162.8152 O.3     1  UNL1       -0.4701
     28 N         142.0666  141.1422  167.4806 N.pl3   1  UNL1       -0.3094
     29 H         142.7684  141.0108  168.1584 H       1  UNL1        0.1523
     30 C         142.2964  142.0840  166.3359 C.ar    1  UNL1        0.0761
     31 C         143.6193  142.0964  165.6288 C.ar    1  UNL1        0.0166
     32 C         143.8491  143.0382  164.4842 C.ar    1  UNL1       -0.0028
     33 C         142.7561  143.9676  164.0466 C.ar    1  UNL1       -0.0195
     34 C         142.9859  144.9094  162.9020 C.3     1  UNL1        0.0311
     35 C         141.4332  143.9552  164.7536 C.ar    1  UNL1        0.0267
     36 C         141.2034  143.0134  165.8983 C.ar    1  UNL1        0.1531
     37 F         139.8805  143.0010  166.6053 F       1  UNL1       -0.2029
@<TRIPOS>BOND
     1    26    27    1
     2    27     1    1
     3     1     2   ar
     4     2     3   ar
     5     3     4   ar
     6     4     5   ar
     7     5     6   ar
     8     6    21    1
     9    21    22   am
    10    21    23    2
    11     6     7   ar
    12     7    28    1
    13    28    30    1
    14    30    31   ar
    15    31    32   ar
    16    32    33   ar
    17    33    34    1
    18    33    35   ar
    19    35    36   ar
    20    36    37    1
    21     7     8   ar
    22     8     9   ar
    23     9    10   ar
    24    10    11    1
    25    11    12    1
    26    12    13    1
    27    13    14    1
    28    14    17    1
    29    17    18    1
    30    18    19    1
    31    14    15    1
    32    15    16    1
    33    10     1   ar
    34    16    11    1
    35     8     3   ar
    36    36    30   ar
    37    22    24    1
    38    22    25    1
    39    28    29    1
    40    19    20    1
@<TRIPOS>MOLECULE
*****
 37 40 0 0 0
SMALL
GASTEIGER

@<TRIPOS>ATOM
      1 C         139.0061  138.1652  164.1048 C.ar    1  UNL1        0.1534
      2 C         138.3250  138.0505  165.4364 C.ar    1  UNL1        0.0591
      3 C         138.7600  138.9200  166.5786 C.ar    1  UNL1        0.1072
      4 N         138.0789  138.8053  167.9102 N.ar    1  UNL1       -0.1477
      5 N         138.5139  139.6748  169.0525 N.ar    1  UNL1       -0.1421
      6 C         139.6300  140.6590  168.8631 C.ar    1  UNL1        0.1690
      7 C         140.3110  140.7737  167.5316 C.ar    1  UNL1        0.0740
      8 C         139.8760  139.9042  166.3894 C.ar    1  UNL1        0.0359
      9 C         140.5571  140.0188  165.0578 C.ar    1  UNL1        0.0204
     10 C         140.1221  139.1493  163.9156 C.ar    1  UNL1        0.0825
     11 N         140.8032  139.2640  162.5840 N.pl3   1  UNL1       -0.3023
     12 C         141.7785  138.2113  162.1473 C.3     1  UNL1        0.1082
     13 C         142.4596  138.3260  160.8158 C.3     1  UNL1        0.0939
     14 N         142.1654  139.4934  159.9209 N.3     1  UNL1       -0.2677
     15 C         141.1901  140.5460  160.3576 C.3     1  UNL1        0.0939
     16 C         140.5090  140.4314  161.6892 C.3     1  UNL1        0.1082
     17 C         142.8465  139.6080  158.5895 C.3     1  UNL1        0.1043
     18 C         144.0524  140.4870  158.4371 C.3     1  UNL1        0.1544
     19 O         145.0964  140.1569  157.4119 O.3     1  UNL1       -0.3805
     20 H         145.5320  139.3237  157.6507 H       1  UNL1        0.2105
     21 C         140.0650  141.5285  170.0054 C.2     1  UNL1        0.2635
     22 N         140.3834  140.9145  171.3364 N.am    1  UNL1       -0.3240
     23 O         140.1815  143.0120  169.8166 O.2     1  UNL1       -0.2686
     24 H         140.3069  139.9408  171.4603 H       1  UNL1        0.1453
     25 H         140.6689  141.4852  172.0862 H       1  UNL1        0.1453
     26 C         137.7904  137.8858  161.8258 C.3     1  UNL1        0.2525
     27 O         138.5711  137.2957  162.9626 O.3     1  UNL1       -0.4701
     28 N         141.4271  141.7578  167.3424 N.pl3   1  UNL1       -0.3094
     29 H         142.1869  141.7668  167.9683 H       1  UNL1        0.1523
     30 C         141.3854  142.7284  166.1994 C.ar    1  UNL1        0.0761
     31 C         140.1141  143.4581  165.8811 C.ar    1  UNL1        0.0166
     32 C         140.0724  144.4286  164.7382 C.ar    1  UNL1       -0.0028
     33 C         141.3020  144.6695  163.9135 C.ar    1  UNL1       -0.0195
     34 C         141.2603  145.6401  162.7706 C.3     1  UNL1        0.0311
     35 C         142.5734  143.9399  164.2318 C.ar    1  UNL1        0.0267
     36 C         142.6150  142.9693  165.3748 C.ar    1  UNL1        0.1531
     37 F         143.8863  142.2396  165.6931 F       1  UNL1       -0.2029
@<TRIPOS>BOND
     1    26    27    1
     2    27     1    1
     3     1     2   ar
     4     2     3   ar
     5     3     4   ar
     6     4     5   ar
     7     5     6   ar
     8     6    21    1
     9    21    22   am
    10    21    23    2
    11     6     7   ar
    12     7    28    1
    13    28    30    1
    14    30    31   ar
    15    31    32   ar
    16    32    33   ar
    17    33    34    1
    18    33    35   ar
    19    35    36   ar
    20    36    37    1
    21     7     8   ar
    22     8     9   ar
    23     9    10   ar
    24    10    11    1
    25    11    12    1
    26    12    13    1
    27    13    14    1
    28    14    17    1
    29    17    18    1
    30    18    19    1
    31    14    15    1
    32    15    16    1
    33    10     1   ar
    34    16    11    1
    35     8     3   ar
    36    36    30   ar
    37    22    24    1
    38    22    25    1
    39    28    29    1
    40    19    20    1
@<TRIPOS>MOLECULE
*****
 37 40 0 0 0
SMALL
GASTEIGER

@<TRIPOS>ATOM
      1 C         139.4740  138.2573  162.5991 C.ar    1  UNL1        0.1534
      2 C         139.2817  138.0547  161.1254 C.ar    1  UNL1        0.0591
      3 C         138.9794  139.2273  160.2402 C.ar    1  UNL1        0.1072
      4 N         138.7870  139.0247  158.7664 N.ar    1  UNL1       -0.1477
      5 N         138.4847  140.1973  157.8813 N.ar    1  UNL1       -0.1421
      6 C         138.3748  141.5727  158.4699 C.ar    1  UNL1        0.1690
      7 C         138.5672  141.7753  159.9436 C.ar    1  UNL1        0.0740
      8 C         138.8695  140.6026  160.8288 C.ar    1  UNL1        0.0359
      9 C         139.0619  140.8053  162.3025 C.ar    1  UNL1        0.0204
     10 C         139.3642  139.6326  163.1877 C.ar    1  UNL1        0.0825
     11 N         139.5566  139.8353  164.6614 N.pl3   1  UNL1       -0.3023
     12 C         138.5362  139.3143  165.6296 C.3     1  UNL1        0.1082
     13 C         138.7285  139.5170  167.1034 C.3     1  UNL1        0.0939
     14 N         139.9413  140.2406  167.6090 N.3     1  UNL1       -0.2677
     15 C         140.9617  140.7616  166.6408 C.3     1  UNL1        0.0939
     16 C         140.7693  140.5589  165.1670 C.3     1  UNL1        0.1082
     17 C         140.1336  140.4433  169.0827 C.3     1  UNL1        0.1043
     18 C         138.9552  140.7544  169.9571 C.3     1  UNL1        0.1544
     19 O         138.1962  139.6415  170.6168 O.3     1  UNL1       -0.3805
     20 H         137.7580  139.1031  169.9393 H       1  UNL1        0.2105
     21 C         138.0726  142.7453  157.5848 C.2     1  UNL1        0.2635
     22 N         136.8184  142.7603  156.7619 N.am    1  UNL1       -0.3240
     23 O         139.0244  143.9030  157.5224 O.2     1  UNL1       -0.2686
     24 H         136.1937  142.0005  156.8029 H       1  UNL1        0.1453
     25 H         136.6200  143.5300  156.1810 H       1  UNL1        0.1453
     26 C         141.1552  136.9053  164.0467 C.3     1  UNL1        0.2525
     27 O         139.7763  137.0847  163.4843 O.3     1  UNL1       -0.4701
     28 N         138.4573  143.1506  160.5322 N.pl3   1  UNL1       -0.3094
     29 H         137.6451  143.6865  160.3829 H       1  UNL1        0.1523
     30 C         139.5851  143.7095  161.3483 C.ar    1  UNL1        0.0761
     31 C         140.9962  143.6006  160.8514 C.ar    1  UNL1        0.0166
     32 C         142.1239  144.1594  161.6674 C.ar    1  UNL1       -0.0028
     33 C         141.8405  144.8272  162.9804 C.ar    1  UNL1       -0.0195
     34 C         142.9682  145.3861  163.7964 C.3     1  UNL1        0.0311
     35 C         140.4294  144.9361  163.4773 C.ar    1  UNL1        0.0267
     36 C         139.3017  144.3772  162.6612 C.ar    1  UNL1        0.1531
     37 F         137.8906  144.4862  163.1580 F       1  UNL1       -0.2029
@<TRIPOS>BOND
     1    26    27    1
     2    27     1    1
     3     1     2   ar
     4     2     3   ar
     5     3     4   ar
     6     4     5   ar
     7     5     6   ar
     8     6    21    1
     9    21    22   am
    10    21    23    2
    11     6     7   ar
    12     7    28    1
    13    28    30    1
    14    30    31   ar
    15    31    32   ar
    16    32    33   ar
    17    33    34    1
    18    33    35   ar
    19    35    36   ar
    20    36    37    1
    21     7     8   ar
    22     8     9   ar
    23     9    10   ar
    24    10    11    1
    25    11    12    1
    26    12    13    1
    27    13    14    1
    28    14    17    1
    29    17    18    1
    30    18    19    1
    31    14    15    1
    32    15    16    1
    33    10     1   ar
    34    16    11    1
    35     8     3   ar
    36    36    30   ar
    37    22    24    1
    38    22    25    1
    39    28    29    1
    40    19    20    1
@<TRIPOS>MOLECULE
*****
 37 40 0 0 0
SMALL
GASTEIGER

@<TRIPOS>ATOM
      1 C         143.3638  143.4512  164.2242 C.ar    1  UNL1        0.1534
      2 C         143.7948  143.0261  165.5966 C.ar    1  UNL1        0.0591
      3 C         142.8166  142.3572  166.5163 C.ar    1  UNL1        0.1072
      4 N         143.2476  141.9322  167.8888 N.ar    1  UNL1       -0.1477
      5 N         142.2694  141.2633  168.8085 N.ar    1  UNL1       -0.1421
      6 C         140.8602  141.0196  168.3557 C.ar    1  UNL1        0.1690
      7 C         140.4293  141.4447  166.9833 C.ar    1  UNL1        0.0740
      8 C         141.4075  142.1135  166.0636 C.ar    1  UNL1        0.0359
      9 C         140.9766  142.5386  164.6912 C.ar    1  UNL1        0.0204
     10 C         141.9548  143.2074  163.7715 C.ar    1  UNL1        0.0825
     11 N         141.5238  143.6325  162.3990 N.pl3   1  UNL1       -0.3023
     12 C         141.0712  145.0421  162.1580 C.3     1  UNL1        0.1082
     13 C         140.6403  145.4672  160.7856 C.3     1  UNL1        0.0939
     14 N         140.6618  144.4827  159.6541 N.3     1  UNL1       -0.2677
     15 C         141.1144  143.0730  159.8951 C.3     1  UNL1        0.0939
     16 C         141.5454  142.6479  161.2676 C.3     1  UNL1        0.1082
     17 C         140.2309  144.9078  158.2817 C.3     1  UNL1        0.1043
     18 C         141.1342  145.7626  157.4432 C.3     1  UNL1        0.1544
     19 O         142.5686  145.9512  157.8390 O.3     1  UNL1       -0.3805
     20 H         142.6116  146.4411  158.6750 H       1  UNL1        0.2105
     21 C         139.8821  140.3508  169.2754 C.2     1  UNL1        0.2635
     22 N         139.9721  140.5732  170.7562 N.am    1  UNL1       -0.3240
     23 O         138.8139  139.4595  168.7145 O.2     1  UNL1       -0.2686
     24 H         140.6732  141.1581  171.1243 H       1  UNL1        0.1453
     25 H         139.3301  140.1342  171.3598 H       1  UNL1        0.1453
     26 C         144.8990  143.3720  162.1297 C.3     1  UNL1        0.2525
     27 O         144.3420  144.1200  163.3045 O.3     1  UNL1       -0.4701
     28 N         139.0202  141.2009  166.5306 N.pl3   1  UNL1       -0.3094
     29 H         138.2662  141.5496  167.0589 H       1  UNL1        0.1523
     30 C         138.7600  140.4259  165.2729 C.ar    1  UNL1        0.0761
     31 C         139.2907  139.0303  165.1286 C.ar    1  UNL1        0.0166
     32 C         139.0305  138.2553  163.8710 C.ar    1  UNL1       -0.0028
     33 C         138.2395  138.8758  162.7577 C.ar    1  UNL1       -0.0195
     34 C         137.9793  138.1008  161.5001 C.3     1  UNL1        0.0311
     35 C         137.7087  140.2713  162.9020 C.ar    1  UNL1        0.0267
     36 C         137.9690  141.0464  164.1597 C.ar    1  UNL1        0.1531
     37 F         137.4383  142.4419  164.3040 F       1  UNL1       -0.2029
@<TRIPOS>BOND
     1    26    27    1
     2    27     1    1
     3     1     2   ar
     4     2     3   ar
     5     3     4   ar
     6     4     5   ar
     7     5     6   ar
     8     6    21    1
     9    21    22   am
    10    21    23    2
    11     6     7   ar
    12     7    28    1
    13    28    30    1
    14    30    31   ar
    15    31    32   ar
    16    32    33   ar
    17    33    34    1
    18    33    35   ar
    19    35    36   ar
    20    36    37    1
    21     7     8   ar
    22     8     9   ar
    23     9    10   ar
    24    10    11    1
    25    11    12    1
    26    12    13    1
    27    13    14    1
    28    14    17    1
    29    17    18    1
    30    18    19    1
    31    14    15    1
    32    15    16    1
    33    10     1   ar
    34    16    11    1
    35     8     3   ar
    36    36    30   ar
    37    22    24    1
    38    22    25    1
    39    28    29    1
    40    19    20    1
@<TRIPOS>MOLECULE
*****
 37 40 0 0 0
SMALL
GASTEIGER

@<TRIPOS>ATOM
      1 C         144.1742  139.9516  162.9625 C.ar    1  UNL1        0.1534
      2 C         144.3670  139.6216  161.5121 C.ar    1  UNL1        0.0591
      3 C         143.1774  139.3450  160.6413 C.ar    1  UNL1        0.1072
      4 N         143.3703  139.0150  159.1907 N.ar    1  UNL1       -0.1477
      5 N         142.1807  138.7385  158.3199 N.ar    1  UNL1       -0.1421
      6 C         140.7982  138.7920  158.8996 C.ar    1  UNL1        0.1690
      7 C         140.6054  139.1220  160.3500 C.ar    1  UNL1        0.0740
      8 C         141.7950  139.3985  161.2209 C.ar    1  UNL1        0.0359
      9 C         141.6022  139.7285  162.6713 C.ar    1  UNL1        0.0204
     10 C         142.7918  140.0051  163.5422 C.ar    1  UNL1        0.0825
     11 N         142.5989  140.3351  164.9927 N.pl3   1  UNL1       -0.3023
     12 C         142.2748  141.7403  165.4054 C.3     1  UNL1        0.1082
     13 C         142.0819  142.0703  166.8559 C.3     1  UNL1        0.0939
     14 N         142.2132  140.9952  167.8937 N.3     1  UNL1       -0.2677
     15 C         142.5374  139.5900  167.4809 C.3     1  UNL1        0.0939
     16 C         142.7303  139.2600  166.0304 C.3     1  UNL1        0.1082
     17 C         142.0203  141.3253  169.3441 C.3     1  UNL1        0.1043
     18 C         142.2004  140.2611  170.3858 C.3     1  UNL1        0.1544
     19 O         142.2391  140.6326  171.8385 O.3     1  UNL1       -0.3805
     20 H         143.0289  141.1674  172.0146 H       1  UNL1        0.2105
     21 C         139.6086  138.5154  158.0287 C.2     1  UNL1        0.2635
     22 N         139.5520  137.2574  157.2137 N.am    1  UNL1       -0.3240
     23 O         138.4756  139.4968  157.9729 O.2     1  UNL1       -0.2686
     24 H         140.2957  136.6133  157.2503 H       1  UNL1        0.1453
     25 H         138.7712  137.0759  156.6421 H       1  UNL1        0.1453
     26 C         145.8854  141.6280  163.9683 C.3     1  UNL1        0.2525
     27 O         145.3638  140.2281  163.8334 O.3     1  UNL1       -0.4701
     28 N         139.2230  139.1755  160.9296 N.pl3   1  UNL1       -0.3094
     29 H         138.6230  138.3996  160.8441 H       1  UNL1        0.1523
     30 C         138.7547  140.4111  161.6397 C.ar    1  UNL1        0.0761
     31 C         138.8478  141.7461  160.9623 C.ar    1  UNL1        0.0166
     32 C         138.3796  142.9817  161.6723 C.ar    1  UNL1       -0.0028
     33 C         137.8181  142.8822  163.0597 C.ar    1  UNL1       -0.0195
     34 C         137.3499  144.1177  163.7697 C.3     1  UNL1        0.0311
     35 C         137.7250  141.5471  163.7371 C.ar    1  UNL1        0.0267
     36 C         138.1933  140.3115  163.0271 C.ar    1  UNL1        0.1531
     37 F         138.1002  138.9764  163.7045 F       1  UNL1       -0.2029
@<TRIPOS>BOND
     1    26    27    1
     2    27     1    1
     3     1     2   ar
     4     2     3   ar
     5     3     4   ar
     6     4     5   ar
     7     5     6   ar
     8     6    21    1
     9    21    22   am
    10    21    23    2
    11     6     7   ar
    12     7    28    1
    13    28    30    1
    14    30    31   ar
    15    31    32   ar
    16    32    33   ar
    17    33    34    1
    18    33    35   ar
    19    35    36   ar
    20    36    37    1
    21     7     8   ar
    22     8     9   ar
    23     9    10   ar
    24    10    11    1
    25    11    12    1
    26    12    13    1
    27    13    14    1
    28    14    17    1
    29    17    18    1
    30    18    19    1
    31    14    15    1
    32    15    16    1
    33    10     1   ar
    34    16    11    1
    35     8     3   ar
    36    36    30   ar
    37    22    24    1
    38    22    25    1
    39    28    29    1
    40    19    20    1
@<TRIPOS>MOLECULE
*****
 37 40 0 0 0
SMALL
GASTEIGER

@<TRIPOS>ATOM
      1 C         143.8328  142.1479  164.4315 C.ar    1  UNL1        0.1534
      2 C         143.7888  142.6301  165.8512 C.ar    1  UNL1        0.0591
      3 C         142.8188  142.0217  166.8202 C.ar    1  UNL1        0.1072
      4 N         142.7748  142.5040  168.2400 N.ar    1  UNL1       -0.1477
      5 N         141.8048  141.8957  169.2090 N.ar    1  UNL1       -0.1421
      6 C         140.8787  140.8051  168.7583 C.ar    1  UNL1        0.1690
      7 C         140.9227  140.3229  167.3386 C.ar    1  UNL1        0.0740
      8 C         141.8927  140.9312  166.3696 C.ar    1  UNL1        0.0359
      9 C         141.9367  140.4490  164.9499 C.ar    1  UNL1        0.0204
     10 C         142.9067  141.0574  163.9809 C.ar    1  UNL1        0.0825
     11 N         142.9506  140.5751  162.5611 N.pl3   1  UNL1       -0.3023
     12 C         141.9441  141.0752  161.5677 C.3     1  UNL1        0.1082
     13 C         141.9880  140.5930  160.1481 C.3     1  UNL1        0.0939
     14 N         143.0384  139.6106  159.7217 N.3     1  UNL1       -0.2677
     15 C         144.0449  139.1105  160.7152 C.3     1  UNL1        0.0939
     16 C         144.0010  139.5928  162.1349 C.3     1  UNL1        0.1082
     17 C         143.0823  139.1284  158.3021 C.3     1  UNL1        0.1043
     18 C         143.7224  139.9749  157.2419 C.3     1  UNL1        0.1544
     19 O         145.2101  140.1654  157.2311 O.3     1  UNL1       -0.3805
     20 H         145.4782  140.6627  158.0196 H       1  UNL1        0.2105
     21 C         139.9087  140.1968  169.7273 C.2     1  UNL1        0.2635
     22 N         140.2801  140.0601  171.1742 N.am    1  UNL1       -0.3240
     23 O         138.5674  139.7252  169.2495 O.2     1  UNL1       -0.2686
     24 H         141.1605  140.3697  171.4878 H       1  UNL1        0.1453
     25 H         139.6434  139.6608  171.8102 H       1  UNL1        0.1453
     26 C         144.3712  143.8913  162.5821 C.3     1  UNL1        0.2525
     27 O         144.8028  142.7562  163.4625 O.3     1  UNL1       -0.4701
     28 N         139.9966  139.2324  166.8880 N.pl3   1  UNL1       -0.3094
     29 H         139.7959  138.4779  167.4877 H       1  UNL1        0.1523
     30 C         139.3763  139.2914  165.5234 C.ar    1  UNL1        0.0761
     31 C         138.5310  140.4678  165.1341 C.ar    1  UNL1        0.0166
     32 C         137.9108  140.5268  163.7697 C.ar    1  UNL1       -0.0028
     33 C         138.1357  139.4094  162.7945 C.ar    1  UNL1       -0.0195
     34 C         137.5154  139.4684  161.4301 C.3     1  UNL1        0.0311
     35 C         138.9810  138.2330  163.1839 C.ar    1  UNL1        0.0267
     36 C         139.6013  138.1740  164.5484 C.ar    1  UNL1        0.1531
     37 F         140.4466  136.9976  164.9377 F       1  UNL1       -0.2029
@<TRIPOS>BOND
     1    26    27    1
     2    27     1    1
     3     1     2   ar
     4     2     3   ar
     5     3     4   ar
     6     4     5   ar
     7     5     6   ar
     8     6    21    1
     9    21    22   am
    10    21    23    2
    11     6     7   ar
    12     7    28    1
    13    28    30    1
    14    30    31   ar
    15    31    32   ar
    16    32    33   ar
    17    33    34    1
    18    33    35   ar
    19    35    36   ar
    20    36    37    1
    21     7     8   ar
    22     8     9   ar
    23     9    10   ar
    24    10    11    1
    25    11    12    1
    26    12    13    1
    27    13    14    1
    28    14    17    1
    29    17    18    1
    30    18    19    1
    31    14    15    1
    32    15    16    1
    33    10     1   ar
    34    16    11    1
    35     8     3   ar
    36    36    30   ar
    37    22    24    1
    38    22    25    1
    39    28    29    1
    40    19    20    1
@<TRIPOS>MOLECULE
*****
 37 40 0 0 0
SMALL
GASTEIGER

@<TRIPOS>ATOM
      1 C         137.9799  140.7125  162.3771 C.ar    1  UNL1        0.1534
      2 C         137.7420  140.5504  160.9050 C.ar    1  UNL1        0.0591
      3 C         138.7495  139.8319  160.0571 C.ar    1  UNL1        0.1072
      4 N         138.5115  139.6698  158.5850 N.ar    1  UNL1       -0.1477
      5 N         139.5190  138.9514  157.7371 N.ar    1  UNL1       -0.1421
      6 C         140.7643  138.3951  158.3613 C.ar    1  UNL1        0.1690
      7 C         141.0022  138.5572  159.8334 C.ar    1  UNL1        0.0740
      8 C         139.9948  139.2757  160.6813 C.ar    1  UNL1        0.0359
      9 C         140.2327  139.4378  162.1534 C.ar    1  UNL1        0.0204
     10 C         139.2253  140.1562  163.0013 C.ar    1  UNL1        0.0825
     11 N         139.4632  140.3183  164.4735 N.pl3   1  UNL1       -0.3023
     12 C         138.7616  139.4214  165.4498 C.3     1  UNL1        0.1082
     13 C         138.9995  139.5835  166.9219 C.3     1  UNL1        0.0939
     14 N         139.9391  140.6425  167.4177 N.3     1  UNL1       -0.2677
     15 C         140.6408  141.5393  166.4413 C.3     1  UNL1        0.0939
     16 C         140.4028  141.3772  164.9692 C.3     1  UNL1        0.1082
     17 C         140.1770  140.8045  168.8898 C.3     1  UNL1        0.1043
     18 C         139.1559  140.3140  169.8730 C.3     1  UNL1        0.1544
     19 O         139.5939  139.5824  171.1070 O.3     1  UNL1       -0.3805
     20 H         139.9965  138.7365  170.8556 H       1  UNL1        0.2105
     21 C         141.7718  137.6767  157.5134 C.2     1  UNL1        0.2635
     22 N         141.3185  136.6505  156.5176 N.am    1  UNL1       -0.3240
     23 O         143.2324  137.9844  157.6612 O.2     1  UNL1       -0.2686
     24 H         140.3599  136.4485  156.4206 H       1  UNL1        0.1453
     25 H         141.9797  136.1789  155.9611 H       1  UNL1        0.1453
     26 C         137.2605  142.8176  163.7191 C.3     1  UNL1        0.2525
     27 O         136.9725  141.4309  163.2250 O.3     1  UNL1       -0.4701
     28 N         142.2476  138.0009  160.4576 N.pl3   1  UNL1       -0.3094
     29 H         142.4858  137.0553  160.3225 H       1  UNL1        0.1523
     30 C         143.1301  138.8855  161.2876 C.ar    1  UNL1        0.0761
     31 C         143.5383  138.4567  162.6658 C.ar    1  UNL1        0.0166
     32 C         144.4207  139.3411  163.4959 C.ar    1  UNL1       -0.0028
     33 C         144.8950  140.6544  162.9477 C.ar    1  UNL1       -0.0195
     34 C         145.7774  141.5389  163.7778 C.3     1  UNL1        0.0311
     35 C         144.4867  141.0832  161.5695 C.ar    1  UNL1        0.0267
     36 C         143.6043  140.1987  160.7394 C.ar    1  UNL1        0.1531
     37 F         143.1960  140.6275  159.3612 F       1  UNL1       -0.2029
@<TRIPOS>BOND
     1    26    27    1
     2    27     1    1
     3     1     2   ar
     4     2     3   ar
     5     3     4   ar
     6     4     5   ar
     7     5     6   ar
     8     6    21    1
     9    21    22   am
    10    21    23    2
    11     6     7   ar
    12     7    28    1
    13    28    30    1
    14    30    31   ar
    15    31    32   ar
    16    32    33   ar
    17    33    34    1
    18    33    35   ar
    19    35    36   ar
    20    36    37    1
    21     7     8   ar
    22     8     9   ar
    23     9    10   ar
    24    10    11    1
    25    11    12    1
    26    12    13    1
    27    13    14    1
    28    14    17    1
    29    17    18    1
    30    18    19    1
    31    14    15    1
    32    15    16    1
    33    10     1   ar
    34    16    11    1
    35     8     3   ar
    36    36    30   ar
    37    22    24    1
    38    22    25    1
    39    28    29    1
    40    19    20    1
@<TRIPOS>MOLECULE
*****
 37 40 0 0 0
SMALL
GASTEIGER

@<TRIPOS>ATOM
      1 C         141.5051  138.0803  163.5992 C.ar    1  UNL1        0.1534
      2 C         141.7413  137.5394  162.2202 C.ar    1  UNL1        0.0591
      3 C         142.4091  138.3937  161.1837 C.ar    1  UNL1        0.1072
      4 N         142.6452  137.8528  159.8047 N.ar    1  UNL1       -0.1477
      5 N         143.3130  138.7070  158.7682 N.ar    1  UNL1       -0.1421
      6 C         143.7447  140.1022  159.1107 C.ar    1  UNL1        0.1690
      7 C         143.5085  140.6430  160.4897 C.ar    1  UNL1        0.0740
      8 C         142.8407  139.7888  161.5262 C.ar    1  UNL1        0.0359
      9 C         142.6046  140.3296  162.9052 C.ar    1  UNL1        0.0204
     10 C         141.9368  139.4754  163.9417 C.ar    1  UNL1        0.0825
     11 N         141.7006  140.0163  165.3207 N.pl3   1  UNL1       -0.3023
     12 C         142.6155  139.6298  166.4448 C.3     1  UNL1        0.1082
     13 C         142.3794  140.1706  167.8238 C.3     1  UNL1        0.0939
     14 N         141.2284  141.0981  168.0788 N.3     1  UNL1       -0.2677
     15 C         140.3135  141.4847  166.9547 C.3     1  UNL1        0.0939
     16 C         140.5496  140.9438  165.5757 C.3     1  UNL1        0.1082
     17 C         140.9923  141.6390  169.4578 C.3     1  UNL1        0.1043
     18 C         140.2070  140.8377  170.4534 C.3     1  UNL1        0.1544
     19 O         140.7310  140.6513  171.8465 O.3     1  UNL1       -0.3805
     20 H         141.5440  140.1231  171.8182 H       1  UNL1        0.2105
     21 C         144.4125  140.9564  158.0742 C.2     1  UNL1        0.2635
     22 N         145.3046  140.3275  157.0453 N.am    1  UNL1       -0.3240
     23 O         144.1883  142.4395  158.0667 O.2     1  UNL1       -0.2686
     24 H         145.4517  139.3540  157.0502 H       1  UNL1        0.1453
     25 H         145.7429  140.8881  156.3650 H       1  UNL1        0.1453
     26 C         139.3779  137.4078  164.9305 C.3     1  UNL1        0.2525
     27 O         140.8373  137.2261  164.6357 O.3     1  UNL1       -0.4701
     28 N         143.9402  142.0381  160.8322 N.pl3   1  UNL1       -0.3094
     29 H         144.8982  142.2617  160.8697 H       1  UNL1        0.1523
     30 C         142.9122  143.0925  161.1177 C.ar    1  UNL1        0.0761
     31 C         141.7247  143.2463  160.2142 C.ar    1  UNL1        0.0166
     32 C         140.6967  144.3006  160.4996 C.ar    1  UNL1       -0.0028
     33 C         140.8561  145.2013  161.6885 C.ar    1  UNL1       -0.0195
     34 C         139.8281  146.2556  161.9740 C.3     1  UNL1        0.0311
     35 C         142.0436  145.0475  162.5920 C.ar    1  UNL1        0.0267
     36 C         143.0716  143.9931  162.3065 C.ar    1  UNL1        0.1531
     37 F         144.2591  143.8393  163.2100 F       1  UNL1       -0.2029
@<TRIPOS>BOND
     1    26    27    1
     2    27     1    1
     3     1     2   ar
     4     2     3   ar
     5     3     4   ar
     6     4     5   ar
     7     5     6   ar
     8     6    21    1
     9    21    22   am
    10    21    23    2
    11     6     7   ar
    12     7    28    1
    13    28    30    1
    14    30    31   ar
    15    31    32   ar
    16    32    33   ar
    17    33    34    1
    18    33    35   ar
    19    35    36   ar
    20    36    37    1
    21     7     8   ar
    22     8     9   ar
    23     9    10   ar
    24    10    11    1
    25    11    12    1
    26    12    13    1
    27    13    14    1
    28    14    17    1
    29    17    18    1
    30    18    19    1
    31    14    15    1
    32    15    16    1
    33    10     1   ar
    34    16    11    1
    35     8     3   ar
    36    36    30   ar
    37    22    24    1
    38    22    25    1
    39    28    29    1
    40    19    20    1
