@<TRIPOS>MOLECULE
*****
 32 35 0 0 0
SMALL
GASTEIGER

@<TRIPOS>ATOM
      1 N         143.3151  142.7192  163.5944 N.am    1  UNL1       -0.2713
      2 C         144.2889  141.5836  163.4843 C.3     1  UNL1        0.0987
      3 C         144.2186  140.4389  164.4511 C.3     1  UNL1        0.0489
      4 C         143.1745  140.4298  165.5280 C.ar    1  UNL1       -0.0047
      5 C         143.1042  139.2851  166.4948 C.ar    1  UNL1        0.0537
      6 CL        144.0779  138.1495  166.3847 Cl      1  UNL1       -0.0826
      7 C         142.0601  139.2760  167.5717 C.ar    1  UNL1        0.0100
      8 C         141.0863  140.4116  167.6819 C.ar    1  UNL1        0.0162
      9 C         141.1566  141.5563  166.7151 C.ar    1  UNL1        0.0600
     10 CL        140.1828  142.6919  166.8252 Cl      1  UNL1       -0.0824
     11 C         142.2007  141.5654  165.6381 C.ar    1  UNL1        0.0608
     12 C         142.2710  142.7101  164.6714 C.2     1  UNL1        0.2498
     13 O         141.2972  143.8458  164.7815 O.2     1  UNL1       -0.2699
     14 C         143.3854  143.8640  162.6276 C.3     1  UNL1        0.1283
     15 C         141.3977  144.2463  160.9988 C.ar    1  UNL1        0.1420
     16 C         140.7937  144.1121  159.6323 C.ar    1  UNL1        0.0494
     17 C         141.5733  143.4613  158.5283 C.ar    1  UNL1        0.0394
     18 C         140.9693  143.3271  157.1619 C.3     1  UNL1        0.0500
     19 N         142.9569  142.9449  158.7907 N.ar    1  UNL1       -0.3245
     20 C         143.5609  143.0791  160.1572 C.ar    1  UNL1        0.2579
     21 O         144.9446  142.5625  160.4196 O.2     1  UNL1       -0.2674
     22 C         142.7814  143.7297  161.2612 C.ar    1  UNL1        0.0875
     23 H         143.4685  142.5178  158.0661 H       1  UNL1        0.1686
     24 C         139.8991  146.1892  161.8523 C.3     1  UNL1        0.2525
     25 O         140.6182  144.8969  162.1028 O.3     1  UNL1       -0.4715
     26 C         140.0422  140.4025  168.7588 C.3     1  UNL1        0.1431
     27 C         140.2599  141.1830  170.0211 C.3     1  UNL1        0.0906
     28 C         140.9854  140.9343  171.3102 C.3     1  UNL1        0.1474
     29 O         140.5678  142.2869  171.8063 O.3     1  UNL1       -0.3534
     30 C         139.8423  142.5356  170.5172 C.3     1  UNL1        0.1474
     31 O         138.7803  139.6130  168.5734 O.3     1  UNL1       -0.3490
     32 C         138.3601  139.1823  167.1994 C.3     1  UNL1        0.1745
@<TRIPOS>BOND
     1    24    25    1
     2    25    15    1
     3    15    16   ar
     4    16    17   ar
     5    17    18    1
     6    17    19   ar
     7    19    20   ar
     8    20    21    2
     9    20    22   ar
    10    22    14    1
    11    14     1    1
    12     1     2    1
    13     2     3    1
    14     3     4    1
    15     4     5   ar
    16     5     6    1
    17     5     7   ar
    18     7     8   ar
    19     8    26    1
    20    26    31    1
    21    31    32    1
    22    26    27    1
    23    27    28    1
    24    28    29    1
    25    29    30    1
    26     8     9   ar
    27     9    10    1
    28     9    11   ar
    29    11    12    1
    30    12    13    2
    31    22    15   ar
    32    12     1   am
    33    11     4   ar
    34    30    27    1
    35    19    23    1
@<TRIPOS>MOLECULE
*****
 32 35 0 0 0
SMALL
GASTEIGER

@<TRIPOS>ATOM
      1 N         142.9304  143.1563  163.4578 N.am    1  UNL1       -0.2713
      2 C         143.9540  142.0800  163.2488 C.3     1  UNL1        0.0987
      3 C         143.9866  140.8890  164.1600 C.3     1  UNL1        0.0489
      4 C         142.9956  140.7743  165.2802 C.ar    1  UNL1       -0.0047
      5 C         143.0283  139.5832  166.1914 C.ar    1  UNL1        0.0537
      6 CL        144.0519  138.5069  165.9825 Cl      1  UNL1       -0.0826
      7 C         142.0372  139.4685  167.3116 C.ar    1  UNL1        0.0100
      8 C         141.0136  140.5449  167.5205 C.ar    1  UNL1        0.0162
      9 C         140.9810  141.7359  166.6093 C.ar    1  UNL1        0.0600
     10 CL        139.9574  142.8122  166.8182 Cl      1  UNL1       -0.0824
     11 C         141.9720  141.8506  165.4891 C.ar    1  UNL1        0.0608
     12 C         141.9394  143.0416  164.5779 C.2     1  UNL1        0.2498
     13 O         140.9157  144.1180  164.7868 O.2     1  UNL1       -0.2699
     14 C         142.8978  144.3474  162.5465 C.3     1  UNL1        0.1283
     15 C         142.5627  143.5150  160.1083 C.ar    1  UNL1        0.1420
     16 C         141.7472  143.4745  158.8500 C.ar    1  UNL1        0.0494
     17 C         140.4513  144.2259  158.7716 C.ar    1  UNL1        0.0394
     18 C         139.6358  144.1854  157.5133 C.3     1  UNL1        0.0500
     19 N         139.9709  145.0178  159.9515 N.ar    1  UNL1       -0.3245
     20 C         140.7864  145.0583  161.2098 C.ar    1  UNL1        0.2579
     21 O         140.3060  145.8502  162.3897 O.2     1  UNL1       -0.2674
     22 C         142.0823  144.3069  161.2882 C.ar    1  UNL1        0.0875
     23 H         139.1204  145.5109  159.9000 H       1  UNL1        0.1686
     24 C         144.6188  142.4469  158.9331 C.3     1  UNL1        0.2525
     25 O         143.8585  142.7636  160.1867 O.3     1  UNL1       -0.4715
     26 C         140.0226  140.4302  168.6406 C.3     1  UNL1        0.1431
     27 C         140.2555  141.1667  169.9265 C.3     1  UNL1        0.0906
     28 C         141.0121  140.8819  171.1900 C.3     1  UNL1        0.1474
     29 O         140.5849  142.2084  171.7448 O.3     1  UNL1       -0.3534
     30 C         139.8283  142.4932  170.4814 C.3     1  UNL1        0.1474
     31 O         138.7987  139.5790  168.4750 O.3     1  UNL1       -0.3490
     32 C         138.3677  139.1435  167.1059 C.3     1  UNL1        0.1745
@<TRIPOS>BOND
     1    24    25    1
     2    25    15    1
     3    15    16   ar
     4    16    17   ar
     5    17    18    1
     6    17    19   ar
     7    19    20   ar
     8    20    21    2
     9    20    22   ar
    10    22    14    1
    11    14     1    1
    12     1     2    1
    13     2     3    1
    14     3     4    1
    15     4     5   ar
    16     5     6    1
    17     5     7   ar
    18     7     8   ar
    19     8    26    1
    20    26    31    1
    21    31    32    1
    22    26    27    1
    23    27    28    1
    24    28    29    1
    25    29    30    1
    26     8     9   ar
    27     9    10    1
    28     9    11   ar
    29    11    12    1
    30    12    13    2
    31    22    15   ar
    32    12     1   am
    33    11     4   ar
    34    30    27    1
    35    19    23    1
@<TRIPOS>MOLECULE
*****
 32 35 0 0 0
SMALL
GASTEIGER

@<TRIPOS>ATOM
      1 N         139.6668  142.7282  163.2487 N.am    1  UNL1       -0.2713
      2 C         140.8664  143.5332  162.8451 C.3     1  UNL1        0.0987
      3 C         142.0810  143.5617  163.7248 C.3     1  UNL1        0.0489
      4 C         142.0959  142.7851  165.0081 C.ar    1  UNL1       -0.0047
      5 C         143.3106  142.8136  165.8878 C.ar    1  UNL1        0.0537
      6 CL        144.5102  143.6186  165.4843 Cl      1  UNL1       -0.0826
      7 C         143.3256  142.0371  167.1711 C.ar    1  UNL1        0.0100
      8 C         142.1259  141.2321  167.5747 C.ar    1  UNL1        0.0162
      9 C         140.9114  141.2036  166.6950 C.ar    1  UNL1        0.0600
     10 CL        139.7118  140.3986  167.0985 Cl      1  UNL1       -0.0824
     11 C         140.8964  141.9802  165.4117 C.ar    1  UNL1        0.0608
     12 C         139.6818  141.9517  164.5320 C.2     1  UNL1        0.2498
     13 O         138.4821  141.1467  164.9356 O.2     1  UNL1       -0.2699
     14 C         138.4521  142.6997  162.3690 C.3     1  UNL1        0.1283
     15 C         138.1496  140.6163  160.8464 C.ar    1  UNL1        0.1420
     16 C         138.2196  139.9763  159.4917 C.ar    1  UNL1        0.0494
     17 C         138.6622  140.7796  158.3046 C.ar    1  UNL1        0.0394
     18 C         138.7322  140.1396  156.9499 C.3     1  UNL1        0.0500
     19 N         139.0347  142.2229  158.4725 N.ar    1  UNL1       -0.3245
     20 C         138.9647  142.8629  159.8273 C.ar    1  UNL1        0.2579
     21 O         139.3372  144.3062  159.9950 O.2     1  UNL1       -0.2674
     22 C         138.5221  142.0597  161.0142 C.ar    1  UNL1        0.0875
     23 H         139.3252  142.7501  157.6934 H       1  UNL1        0.1686
     24 C         138.0854  138.3658  162.1428 C.3     1  UNL1        0.2525
     25 O         137.7070  139.8131  162.0334 O.3     1  UNL1       -0.4715
     26 C         142.1409  140.4556  168.8579 C.3     1  UNL1        0.1431
     27 C         141.5598  141.0551  170.1041 C.3     1  UNL1        0.0906
     28 C         141.9883  142.1221  171.0675 C.3     1  UNL1        0.1474
     29 O         140.7379  141.9028  171.8665 O.3     1  UNL1       -0.3534
     30 C         140.3094  140.8358  170.9032 C.3     1  UNL1        0.1474
     31 O         142.7371  139.0797  168.8950 O.3     1  UNL1       -0.3490
     32 C         142.8720  138.3557  170.2018 C.3     1  UNL1        0.1745
@<TRIPOS>BOND
     1    24    25    1
     2    25    15    1
     3    15    16   ar
     4    16    17   ar
     5    17    18    1
     6    17    19   ar
     7    19    20   ar
     8    20    21    2
     9    20    22   ar
    10    22    14    1
    11    14     1    1
    12     1     2    1
    13     2     3    1
    14     3     4    1
    15     4     5   ar
    16     5     6    1
    17     5     7   ar
    18     7     8   ar
    19     8    26    1
    20    26    31    1
    21    31    32    1
    22    26    27    1
    23    27    28    1
    24    28    29    1
    25    29    30    1
    26     8     9   ar
    27     9    10    1
    28     9    11   ar
    29    11    12    1
    30    12    13    2
    31    22    15   ar
    32    12     1   am
    33    11     4   ar
    34    30    27    1
    35    19    23    1
@<TRIPOS>MOLECULE
*****
 32 35 0 0 0
SMALL
GASTEIGER

@<TRIPOS>ATOM
      1 N         138.6581  142.9725  163.3429 N.am    1  UNL1       -0.2713
      2 C         137.5495  141.9692  163.4617 C.3     1  UNL1        0.0987
      3 C         137.6121  140.9038  164.5157 C.3     1  UNL1        0.0489
      4 C         138.7833  140.8417  165.4508 C.ar    1  UNL1       -0.0047
      5 C         138.8458  139.7762  166.5048 C.ar    1  UNL1        0.0537
      6 CL        137.7372  138.7728  166.6237 Cl      1  UNL1       -0.0826
      7 C         140.0170  139.7141  167.4399 C.ar    1  UNL1        0.0100
      8 C         141.1257  140.7175  167.3210 C.ar    1  UNL1        0.0162
      9 C         141.0631  141.7829  166.2670 C.ar    1  UNL1        0.0600
     10 CL        142.1717  142.7863  166.1482 Cl      1  UNL1       -0.0824
     11 C         139.8919  141.8450  165.3319 C.ar    1  UNL1        0.0608
     12 C         139.8293  142.9104  164.2780 C.2     1  UNL1        0.2498
     13 O         140.9380  143.9139  164.1591 O.2     1  UNL1       -0.2699
     14 C         138.5956  144.0380  162.2889 C.3     1  UNL1        0.1283
     15 C         139.8644  142.8994  160.3283 C.ar    1  UNL1        0.1420
     16 C         140.9075  142.9515  159.2517 C.ar    1  UNL1        0.0494
     17 C         141.7251  144.1943  159.0591 C.ar    1  UNL1        0.0394
     18 C         142.7683  144.2464  157.9825 C.3     1  UNL1        0.0500
     19 N         141.4995  145.3850  159.9431 N.ar    1  UNL1       -0.3245
     20 C         140.4564  145.3329  161.0197 C.ar    1  UNL1        0.2579
     21 O         140.2308  146.5236  161.9036 O.2     1  UNL1       -0.2674
     22 C         139.6388  144.0901  161.2123 C.ar    1  UNL1        0.0875
     23 H         142.0362  146.2006  159.8167 H       1  UNL1        0.1686
     24 C         139.7250  140.3494  160.8051 C.3     1  UNL1        0.2525
     25 O         139.0468  141.6567  160.5209 O.3     1  UNL1       -0.4715
     26 C         142.2969  140.6554  168.2561 C.3     1  UNL1        0.1431
     27 C         142.5701  141.7948  169.1927 C.3     1  UNL1        0.0906
     28 C         141.7330  142.8524  169.8490 C.3     1  UNL1        0.1474
     29 O         142.9565  143.4062  170.5172 O.3     1  UNL1       -0.3534
     30 C         143.7936  142.3486  169.8608 C.3     1  UNL1        0.1474
     31 O         143.1949  139.4540  168.2547 O.3     1  UNL1       -0.3490
     32 C         143.3571  138.6403  167.0050 C.3     1  UNL1        0.1745
@<TRIPOS>BOND
     1    24    25    1
     2    25    15    1
     3    15    16   ar
     4    16    17   ar
     5    17    18    1
     6    17    19   ar
     7    19    20   ar
     8    20    21    2
     9    20    22   ar
    10    22    14    1
    11    14     1    1
    12     1     2    1
    13     2     3    1
    14     3     4    1
    15     4     5   ar
    16     5     6    1
    17     5     7   ar
    18     7     8   ar
    19     8    26    1
    20    26    31    1
    21    31    32    1
    22    26    27    1
    23    27    28    1
    24    28    29    1
    25    29    30    1
    26     8     9   ar
    27     9    10    1
    28     9    11   ar
    29    11    12    1
    30    12    13    2
    31    22    15   ar
    32    12     1   am
    33    11     4   ar
    34    30    27    1
    35    19    23    1
@<TRIPOS>MOLECULE
*****
 32 35 0 0 0
SMALL
GASTEIGER

@<TRIPOS>ATOM
      1 N         143.1728  141.5609  162.4144 N.am    1  UNL1       -0.2713
      2 C         142.2982  142.5707  161.7322 C.3     1  UNL1        0.0987
      3 C         141.2740  143.3309  162.5216 C.3     1  UNL1        0.0489
      4 C         141.1244  143.0813  163.9931 C.ar    1  UNL1       -0.0047
      5 C         140.1002  143.8416  164.7824 C.ar    1  UNL1        0.0537
      6 CL        139.2256  144.8514  164.1003 Cl      1  UNL1       -0.0826
      7 C         139.9506  143.5920  166.2539 C.ar    1  UNL1        0.0100
      8 C         140.8252  142.5821  166.9361 C.ar    1  UNL1        0.0162
      9 C         141.8494  141.8219  166.1467 C.ar    1  UNL1        0.0600
     10 CL        142.7239  140.8121  166.8289 Cl      1  UNL1       -0.0824
     11 C         141.9990  142.0715  164.6752 C.ar    1  UNL1        0.0608
     12 C         143.0232  141.3113  163.8859 C.2     1  UNL1        0.2498
     13 O         143.8978  140.3014  164.5681 O.2     1  UNL1       -0.2699
     14 C         144.1970  140.8006  161.6251 C.3     1  UNL1        0.1283
     15 C         143.2393  138.5007  160.8881 C.ar    1  UNL1        0.1420
     16 C         142.8040  137.5627  159.8015 C.ar    1  UNL1        0.0494
     17 C         142.8912  137.9867  158.3652 C.ar    1  UNL1        0.0394
     18 C         142.4559  137.0487  157.2786 C.3     1  UNL1        0.0500
     19 N         143.4136  139.3486  158.0157 N.ar    1  UNL1       -0.3245
     20 C         143.8489  140.2866  159.1023 C.ar    1  UNL1        0.2579
     21 O         144.3713  141.6485  158.7526 O.2     1  UNL1       -0.2674
     22 C         143.7617  139.8626  160.5384 C.ar    1  UNL1        0.0875
     23 H         143.4708  139.6268  157.0730 H       1  UNL1        0.1686
     24 C         141.8147  137.8019  162.9452 C.3     1  UNL1        0.2525
     25 O         143.1522  138.0767  162.3243 O.3     1  UNL1       -0.4715
     26 C         140.6756  142.3325  168.4076 C.3     1  UNL1        0.1431
     27 C         139.8216  141.1988  168.8930 C.3     1  UNL1        0.0906
     28 C         139.1111  140.8793  170.1748 C.3     1  UNL1        0.1474
     29 O         138.6140  139.5955  169.5793 O.3     1  UNL1       -0.3534
     30 C         139.3245  139.9149  168.2975 C.3     1  UNL1        0.1474
     31 O         141.3799  143.2165  169.3937 O.3     1  UNL1       -0.3490
     32 C         142.6038  142.7206  170.1050 C.3     1  UNL1        0.1745
@<TRIPOS>BOND
     1    24    25    1
     2    25    15    1
     3    15    16   ar
     4    16    17   ar
     5    17    18    1
     6    17    19   ar
     7    19    20   ar
     8    20    21    2
     9    20    22   ar
    10    22    14    1
    11    14     1    1
    12     1     2    1
    13     2     3    1
    14     3     4    1
    15     4     5   ar
    16     5     6    1
    17     5     7   ar
    18     7     8   ar
    19     8    26    1
    20    26    31    1
    21    31    32    1
    22    26    27    1
    23    27    28    1
    24    28    29    1
    25    29    30    1
    26     8     9   ar
    27     9    10    1
    28     9    11   ar
    29    11    12    1
    30    12    13    2
    31    22    15   ar
    32    12     1   am
    33    11     4   ar
    34    30    27    1
    35    19    23    1
@<TRIPOS>MOLECULE
*****
 32 35 0 0 0
SMALL
GASTEIGER

@<TRIPOS>ATOM
      1 N         139.6787  142.2703  162.4544 N.am    1  UNL1       -0.2713
      2 C         140.0259  140.9904  161.7535 C.3     1  UNL1        0.0987
      3 C         140.6259  139.8521  162.5243 C.3     1  UNL1        0.0489
      4 C         140.8788  139.9937  163.9960 C.ar    1  UNL1       -0.0047
      5 C         141.4789  138.8553  164.7668 C.ar    1  UNL1        0.0537
      6 CL        141.8260  137.5754  164.0658 Cl      1  UNL1       -0.0826
      7 C         141.7317  138.9969  166.2385 C.ar    1  UNL1        0.0100
      8 C         141.3846  140.2768  166.9395 C.ar    1  UNL1        0.0162
      9 C         140.7845  141.4151  166.1687 C.ar    1  UNL1        0.0600
     10 CL        140.4374  142.6950  166.8696 Cl      1  UNL1       -0.0824
     11 C         140.5317  141.2736  164.6969 C.ar    1  UNL1        0.0608
     12 C         139.9316  142.4119  163.9261 C.2     1  UNL1        0.2498
     13 O         139.5844  143.6918  164.6271 O.2     1  UNL1       -0.2699
     14 C         139.0787  143.4087  161.6836 C.3     1  UNL1        0.1283
     15 C         139.4585  143.7289  159.1334 C.ar    1  UNL1        0.1420
     16 C         140.2204  144.3525  158.0018 C.ar    1  UNL1        0.0494
     17 C         141.3643  145.2794  158.2886 C.ar    1  UNL1        0.0394
     18 C         142.1262  145.9030  157.1569 C.3     1  UNL1        0.0500
     19 N         141.7463  145.5828  159.7070 N.ar    1  UNL1       -0.3245
     20 C         140.9844  144.9592  160.8387 C.ar    1  UNL1        0.2579
     21 O         141.3665  145.2626  162.2572 O.2     1  UNL1       -0.2674
     22 C         139.8406  144.0323  160.5519 C.ar    1  UNL1        0.0875
     23 H         142.4971  146.1912  159.8952 H       1  UNL1        0.1686
     24 C         137.8634  142.5825  157.4331 C.3     1  UNL1        0.2525
     25 O         138.3146  142.8019  158.8467 O.3     1  UNL1       -0.4715
     26 C         141.6374  140.4184  168.4112 C.3     1  UNL1        0.1431
     27 C         140.5178  140.2115  169.3879 C.3     1  UNL1        0.0906
     28 C         140.4266  140.0307  170.8741 C.3     1  UNL1        0.1474
     29 O         138.9345  139.9190  170.7690 O.3     1  UNL1       -0.3534
     30 C         139.0257  140.0998  169.2827 C.3     1  UNL1        0.1474
     31 O         143.0098  140.7668  168.9063 O.3     1  UNL1       -0.3490
     32 C         143.3099  142.1633  169.3640 C.3     1  UNL1        0.1745
@<TRIPOS>BOND
     1    24    25    1
     2    25    15    1
     3    15    16   ar
     4    16    17   ar
     5    17    18    1
     6    17    19   ar
     7    19    20   ar
     8    20    21    2
     9    20    22   ar
    10    22    14    1
    11    14     1    1
    12     1     2    1
    13     2     3    1
    14     3     4    1
    15     4     5   ar
    16     5     6    1
    17     5     7   ar
    18     7     8   ar
    19     8    26    1
    20    26    31    1
    21    31    32    1
    22    26    27    1
    23    27    28    1
    24    28    29    1
    25    29    30    1
    26     8     9   ar
    27     9    10    1
    28     9    11   ar
    29    11    12    1
    30    12    13    2
    31    22    15   ar
    32    12     1   am
    33    11     4   ar
    34    30    27    1
    35    19    23    1
@<TRIPOS>MOLECULE
*****
 32 35 0 0 0
SMALL
GASTEIGER

@<TRIPOS>ATOM
      1 N         141.4865  144.3045  161.7238 N.am    1  UNL1       -0.2713
      2 C         142.8011  143.6674  161.3832 C.3     1  UNL1        0.0987
      3 C         143.5139  142.8281  162.4017 C.3     1  UNL1        0.0489
      4 C         142.9122  142.6259  163.7608 C.ar    1  UNL1       -0.0047
      5 C         143.6251  141.7865  164.7793 C.ar    1  UNL1        0.0537
      6 CL        144.9397  141.1494  164.4387 Cl      1  UNL1       -0.0826
      7 C         143.0234  141.5842  166.1383 C.ar    1  UNL1        0.0100
      8 C         141.7087  142.2214  166.4789 C.ar    1  UNL1        0.0162
      9 C         140.9959  143.0607  165.4604 C.ar    1  UNL1        0.0600
     10 CL        139.6813  143.6977  165.8009 Cl      1  UNL1       -0.0824
     11 C         141.5976  143.2629  164.1013 C.ar    1  UNL1        0.0608
     12 C         140.8848  144.1022  163.0828 C.2     1  UNL1        0.2498
     13 O         139.5702  144.7393  163.4233 O.2     1  UNL1       -0.2699
     14 C         140.7736  145.1438  160.7052 C.3     1  UNL1        0.1283
     15 C         139.3618  143.5835  159.1814 C.ar    1  UNL1        0.1420
     16 C         139.0583  143.0199  157.8248 C.ar    1  UNL1        0.0494
     17 C         139.8633  143.4531  156.6355 C.ar    1  UNL1        0.0394
     18 C         139.5599  142.8895  155.2789 C.3     1  UNL1        0.0500
     19 N         140.9717  144.4499  156.8028 N.ar    1  UNL1       -0.3245
     20 C         141.2751  145.0134  158.1594 C.ar    1  UNL1        0.2579
     21 O         142.3835  146.0102  158.3266 O.2     1  UNL1       -0.2674
     22 C         140.4702  144.5803  159.3487 C.ar    1  UNL1        0.0875
     23 H         141.5000  144.7342  156.0222 H       1  UNL1        0.1686
     24 C         138.7436  141.7762  160.9424 C.3     1  UNL1        0.2525
     25 O         138.5569  143.1503  160.3707 O.3     1  UNL1       -0.4715
     26 C         141.1070  142.0191  167.8379 C.3     1  UNL1        0.1431
     27 C         140.1048  140.9251  168.0592 C.3     1  UNL1        0.0906
     28 C         139.3750  139.9599  167.1726 C.3     1  UNL1        0.1474
     29 O         138.6876  139.3780  168.3721 O.3     1  UNL1       -0.3534
     30 C         139.4174  140.3431  169.2586 C.3     1  UNL1        0.1474
     31 O         141.5074  142.9108  168.9757 O.3     1  UNL1       -0.3490
     32 C         140.4757  143.7491  169.6705 C.3     1  UNL1        0.1745
@<TRIPOS>BOND
     1    24    25    1
     2    25    15    1
     3    15    16   ar
     4    16    17   ar
     5    17    18    1
     6    17    19   ar
     7    19    20   ar
     8    20    21    2
     9    20    22   ar
    10    22    14    1
    11    14     1    1
    12     1     2    1
    13     2     3    1
    14     3     4    1
    15     4     5   ar
    16     5     6    1
    17     5     7   ar
    18     7     8   ar
    19     8    26    1
    20    26    31    1
    21    31    32    1
    22    26    27    1
    23    27    28    1
    24    28    29    1
    25    29    30    1
    26     8     9   ar
    27     9    10    1
    28     9    11   ar
    29    11    12    1
    30    12    13    2
    31    22    15   ar
    32    12     1   am
    33    11     4   ar
    34    30    27    1
    35    19    23    1
@<TRIPOS>MOLECULE
*****
 32 35 0 0 0
SMALL
GASTEIGER

@<TRIPOS>ATOM
      1 N         140.2392  140.1509  162.6866 N.am    1  UNL1       -0.2713
      2 C         139.0624  139.2357  162.8528 C.3     1  UNL1        0.0987
      3 C         138.5415  138.9256  164.2248 C.3     1  UNL1        0.0489
      4 C         139.1973  139.5307  165.4306 C.ar    1  UNL1       -0.0047
      5 C         138.6763  139.2205  166.8026 C.ar    1  UNL1        0.0537
      6 CL        137.4995  138.3054  166.9689 Cl      1  UNL1       -0.0826
      7 C         139.3321  139.8256  168.0084 C.ar    1  UNL1        0.0100
      8 C         140.5089  140.7408  167.8420 C.ar    1  UNL1        0.0162
      9 C         141.0298  141.0509  166.4701 C.ar    1  UNL1        0.0600
     10 CL        142.2066  141.9661  166.3038 Cl      1  UNL1       -0.0824
     11 C         140.3740  140.4458  165.2643 C.ar    1  UNL1        0.0608
     12 C         140.8950  140.7559  163.8923 C.2     1  UNL1        0.2498
     13 O         142.0718  141.6711  163.7260 O.2     1  UNL1       -0.2699
     14 C         140.7602  140.4610  161.3145 C.3     1  UNL1        0.1283
     15 C         139.0756  141.9945  160.0653 C.ar    1  UNL1        0.1420
     16 C         138.1182  142.2213  158.9331 C.ar    1  UNL1        0.0494
     17 C         137.8879  141.1413  157.9178 C.ar    1  UNL1        0.0394
     18 C         136.9305  141.3680  156.7856 C.3     1  UNL1        0.0500
     19 N         138.6151  139.8346  158.0349 N.ar    1  UNL1       -0.3245
     20 C         139.5725  139.6078  159.1671 C.ar    1  UNL1        0.2579
     21 O         140.2997  138.3010  159.2841 O.2     1  UNL1       -0.2674
     22 C         139.8028  140.6878  160.1823 C.ar    1  UNL1        0.0875
     23 H         138.4640  139.1258  157.3685 H       1  UNL1        0.1686
     24 C         138.3095  143.2950  162.1799 C.3     1  UNL1        0.2525
     25 O         139.3058  143.0745  161.0805 O.3     1  UNL1       -0.4715
     26 C         141.1647  141.3459  169.0478 C.3     1  UNL1        0.1431
     27 C         140.5100  142.4909  169.7623 C.3     1  UNL1        0.0906
     28 C         140.6209  143.9853  169.6961 C.3     1  UNL1        0.1474
     29 O         139.5841  144.1100  170.7729 O.3     1  UNL1       -0.3534
     30 C         139.4733  142.6155  170.8392 C.3     1  UNL1        0.1474
     31 O         142.4751  140.8061  169.5390 O.3     1  UNL1       -0.3490
     32 C         142.5576  139.4059  170.0706 C.3     1  UNL1        0.1745
@<TRIPOS>BOND
     1    24    25    1
     2    25    15    1
     3    15    16   ar
     4    16    17   ar
     5    17    18    1
     6    17    19   ar
     7    19    20   ar
     8    20    21    2
     9    20    22   ar
    10    22    14    1
    11    14     1    1
    12     1     2    1
    13     2     3    1
    14     3     4    1
    15     4     5   ar
    16     5     6    1
    17     5     7   ar
    18     7     8   ar
    19     8    26    1
    20    26    31    1
    21    31    32    1
    22    26    27    1
    23    27    28    1
    24    28    29    1
    25    29    30    1
    26     8     9   ar
    27     9    10    1
    28     9    11   ar
    29    11    12    1
    30    12    13    2
    31    22    15   ar
    32    12     1   am
    33    11     4   ar
    34    30    27    1
    35    19    23    1
@<TRIPOS>MOLECULE
*****
 32 35 0 0 0
SMALL
GASTEIGER

@<TRIPOS>ATOM
      1 N         139.6155  140.6297  162.3667 N.am    1  UNL1       -0.2713
      2 C         138.5807  139.5751  162.6254 C.3     1  UNL1        0.0987
      3 C         138.2909  139.1376  164.0306 C.3     1  UNL1        0.0489
      4 C         139.0360  139.7546  165.1770 C.ar    1  UNL1       -0.0047
      5 C         138.7461  139.3170  166.5822 C.ar    1  UNL1        0.0537
      6 CL        137.7113  138.2624  166.8410 Cl      1  UNL1       -0.0826
      7 C         139.4912  139.9340  167.7286 C.ar    1  UNL1        0.0100
      8 C         140.5261  140.9886  167.4698 C.ar    1  UNL1        0.0162
      9 C         140.8159  141.4261  166.0646 C.ar    1  UNL1        0.0600
     10 CL        141.8507  142.4807  165.8059 Cl      1  UNL1       -0.0824
     11 C         140.0708  140.8091  164.9182 C.ar    1  UNL1        0.0608
     12 C         140.3606  141.2467  163.5131 C.2     1  UNL1        0.2498
     13 O         141.3955  142.3013  163.2543 O.2     1  UNL1       -0.2699
     14 C         139.9054  141.0673  160.9615 C.3     1  UNL1        0.1283
     15 C         141.7941  139.6677  159.8551 C.ar    1  UNL1        0.1420
     16 C         142.2382  138.6633  158.8333 C.ar    1  UNL1        0.0494
     17 C         141.2378  138.0542  157.8962 C.ar    1  UNL1        0.0394
     18 C         141.6819  137.0498  156.8744 C.3     1  UNL1        0.0500
     19 N         139.7933  138.4494  157.9808 N.ar    1  UNL1       -0.3245
     20 C         139.3492  139.4538  159.0026 C.ar    1  UNL1        0.2579
     21 O         137.9046  139.8491  159.0872 O.2     1  UNL1       -0.2674
     22 C         140.3495  140.0629  159.9397 C.ar    1  UNL1        0.0875
     23 H         139.1367  138.0497  157.3658 H       1  UNL1        0.1686
     24 C         143.5234  139.4114  161.7769 C.3     1  UNL1        0.2525
     25 O         142.7944  140.2768  160.7922 O.3     1  UNL1       -0.4715
     26 C         141.2711  141.6055  168.6162 C.3     1  UNL1        0.1431
     27 C         140.5707  142.5565  169.5409 C.3     1  UNL1        0.0906
     28 C         139.8087  142.4191  170.8257 C.3     1  UNL1        0.1474
     29 O         139.5801  143.9014  170.8486 O.3     1  UNL1       -0.3534
     30 C         140.3421  144.0388  169.5639 C.3     1  UNL1        0.1474
     31 O         142.7166  141.2716  168.8379 O.3     1  UNL1       -0.3490
     32 C         143.5999  142.2241  169.5879 C.3     1  UNL1        0.1745
@<TRIPOS>BOND
     1    24    25    1
     2    25    15    1
     3    15    16   ar
     4    16    17   ar
     5    17    18    1
     6    17    19   ar
     7    19    20   ar
     8    20    21    2
     9    20    22   ar
    10    22    14    1
    11    14     1    1
    12     1     2    1
    13     2     3    1
    14     3     4    1
    15     4     5   ar
    16     5     6    1
    17     5     7   ar
    18     7     8   ar
    19     8    26    1
    20    26    31    1
    21    31    32    1
    22    26    27    1
    23    27    28    1
    24    28    29    1
    25    29    30    1
    26     8     9   ar
    27     9    10    1
    28     9    11   ar
    29    11    12    1
    30    12    13    2
    31    22    15   ar
    32    12     1   am
    33    11     4   ar
    34    30    27    1
    35    19    23    1
