@<TRIPOS>MOLECULE
*****
 36 40 0 0 0
SMALL
GASTEIGER

@<TRIPOS>ATOM
      1 C         137.5654  142.6684  163.4973 C.3     1  UNL1        0.1336
      2 N         138.1689  141.4949  162.7841 N.ar    1  UNL1       -0.2922
      3 C         138.5233  141.6018  161.3305 C.ar    1  UNL1        0.2783
      4 O         138.2741  142.8823  160.5900 O.2     1  UNL1       -0.2653
      5 C         139.1268  140.4283  160.6174 C.ar    1  UNL1        0.1370
      6 C         139.3760  139.1478  161.3578 C.ar    1  UNL1        0.1060
      7 N         139.9790  138.1665  160.3969 N.ar    1  UNL1       -0.2134
      8 C         140.1024  138.8405  159.0625 C.ar    1  UNL1        0.2015
      9 N         139.5758  140.2383  159.1988 N.ar    1  UNL1       -0.2915
     10 C         139.0216  139.0408  162.8114 C.ar    1  UNL1        0.0352
     11 C         139.2708  137.7604  163.5519 C.ar    1  UNL1        0.0030
     12 C         138.9165  137.6534  165.0054 C.ar    1  UNL1        0.0013
     13 C         138.3130  138.8269  165.7186 C.ar    1  UNL1        0.0154
     14 C         138.0638  140.1074  164.9782 C.ar    1  UNL1        0.0184
     15 C         138.4181  140.2143  163.5246 C.ar    1  UNL1        0.0641
     16 N         140.6555  138.2247  157.8115 N.pl3   1  UNL1       -0.2782
     17 C         139.7375  137.5369  156.8449 C.3     1  UNL1        0.0937
     18 C         140.2904  136.9212  155.5940 C.3     1  UNL1        0.0229
     19 C         141.7615  136.9931  155.3096 C.3     1  UNL1        0.0190
     20 C         142.6795  137.6808  156.2761 C.3     1  UNL1        0.0710
     21 N         144.1506  137.7527  155.9917 N.3     1  UNL1       -0.3208
     22 C         142.1265  138.2966  157.5271 C.3     1  UNL1        0.1089
     23 H         144.3489  137.2865  155.1064 H       1  UNL1        0.1189
     24 H         144.6649  137.2910  156.7418 H       1  UNL1        0.1189
     25 C         137.9586  138.7199  167.1723 C.2     1  UNL1        0.0729
     26 O         138.7443  139.4869  168.1942 O.co2   1  UNL1       -0.5446
     27 O         136.8186  137.8459  167.6040 O.co2   1  UNL1       -0.5446
     28 C         139.5097  141.2659  158.1080 C.3     1  UNL1        0.1365
     29 C         138.5626  141.0808  156.9596 C.ar    1  UNL1        0.0133
     30 C         137.0817  141.1065  157.1971 C.ar    1  UNL1        0.0281
     31 C         136.1346  140.9214  156.0487 C.ar    1  UNL1        0.1399
     32 F         134.6538  140.9471  156.2862 F       1  UNL1       -0.2042
     33 C         136.6685  140.7105  154.6629 C.ar    1  UNL1        0.0305
     34 C         138.1493  140.6848  154.4254 C.ar    1  UNL1        0.0134
     35 C         139.0964  140.8700  155.5738 C.ar    1  UNL1        0.0557
     36 CL        140.5773  140.8443  155.3363 Cl      1  UNL1       -0.0825
@<TRIPOS>UNITY_ATOM_ATTR
26 1
charge -1
@<TRIPOS>BOND
     1     1     2    1
     2     2     3   ar
     3     3     4    2
     4     3     5   ar
     5     5     6   ar
     6     6     7   ar
     7     7     8   ar
     8     8    16    1
     9    16    17    1
    10    17    18    1
    11    18    19    1
    12    19    20    1
    13    20    21    1
    14    20    22    1
    15     8     9   ar
    16     9    28    1
    17    28    29    1
    18    29    30   ar
    19    30    31   ar
    20    31    32    1
    21    31    33   ar
    22    33    34   ar
    23    34    35   ar
    24    35    36    1
    25     6    10   ar
    26    10    11   ar
    27    11    12   ar
    28    12    13   ar
    29    13    25    1
    30    25    26   ar
    31    25    27   ar
    32    13    14   ar
    33    14    15   ar
    34    15     2   ar
    35     9     5   ar
    36    35    29   ar
    37    15    10   ar
    38    22    16    1
    39    21    23    1
    40    21    24    1
@<TRIPOS>MOLECULE
*****
 36 40 0 0 0
SMALL
GASTEIGER

@<TRIPOS>ATOM
      1 C         137.4989  142.6374  163.5044 C.3     1  UNL1        0.1336
      2 N         138.1095  141.4693  162.7883 N.ar    1  UNL1       -0.2922
      3 C         138.4535  141.5784  161.3324 C.ar    1  UNL1        0.2783
      4 O         138.1869  142.8557  160.5925 O.2     1  UNL1       -0.2653
      5 C         139.0641  140.4103  160.6164 C.ar    1  UNL1        0.1370
      6 C         139.3306  139.1330  161.3563 C.ar    1  UNL1        0.1060
      7 N         139.9372  138.1568  160.3924 N.ar    1  UNL1       -0.2134
      8 C         140.0454  138.8308  159.0567 C.ar    1  UNL1        0.2015
      9 N         139.5058  140.2235  159.1952 N.ar    1  UNL1       -0.2915
     10 C         138.9866  139.0238  162.8123 C.ar    1  UNL1        0.0352
     11 C         139.2532  137.7466  163.5522 C.ar    1  UNL1        0.0030
     12 C         138.9092  137.6374  165.0081 C.ar    1  UNL1        0.0013
     13 C         138.2987  138.8055  165.7241 C.ar    1  UNL1        0.0154
     14 C         138.0321  140.0828  164.9842 C.ar    1  UNL1        0.0184
     15 C         138.3761  140.1919  163.5283 C.ar    1  UNL1        0.0641
     16 N         140.5966  138.2193  157.8027 N.pl3   1  UNL1       -0.2782
     17 C         139.6709  137.5811  156.8099 C.3     1  UNL1        0.0937
     18 C         140.2219  136.9697  155.5560 C.3     1  UNL1        0.0229
     19 C         141.6987  136.9965  155.2948 C.3     1  UNL1        0.0190
     20 C         142.6245  137.6348  156.2876 C.3     1  UNL1        0.0710
     21 N         144.1014  137.6616  156.0264 N.3     1  UNL1       -0.3208
     22 C         142.0734  138.2462  157.5416 C.3     1  UNL1        0.1089
     23 H         144.2974  137.2051  155.1356 H       1  UNL1        0.1189
     24 H         144.5881  137.1690  156.7753 H       1  UNL1        0.1189
     25 C         137.9547  138.6964  167.1801 C.2     1  UNL1        0.0729
     26 O         136.8226  137.8157  167.6193 O.co2   1  UNL1       -0.5446
     27 O         138.7427  139.4678  168.1968 O.co2   1  UNL1       -0.5446
     28 C         139.4226  141.2494  158.1039 C.3     1  UNL1        0.1365
     29 C         140.4604  142.3282  158.0080 C.ar    1  UNL1        0.0133
     30 C         141.7864  142.1559  158.6877 C.ar    1  UNL1        0.0281
     31 C         142.8242  143.2347  158.5918 C.ar    1  UNL1        0.1399
     32 F         144.1502  143.0624  159.2715 F       1  UNL1       -0.2042
     33 C         142.5359  144.4857  157.8161 C.ar    1  UNL1        0.0305
     34 C         141.2099  144.6580  157.1364 C.ar    1  UNL1        0.0134
     35 C         140.1721  143.5792  157.2323 C.ar    1  UNL1        0.0557
     36 CL        138.8461  143.7515  156.5526 Cl      1  UNL1       -0.0825
@<TRIPOS>UNITY_ATOM_ATTR
26 1
charge -1
@<TRIPOS>BOND
     1     1     2    1
     2     2     3   ar
     3     3     4    2
     4     3     5   ar
     5     5     6   ar
     6     6     7   ar
     7     7     8   ar
     8     8    16    1
     9    16    17    1
    10    17    18    1
    11    18    19    1
    12    19    20    1
    13    20    21    1
    14    20    22    1
    15     8     9   ar
    16     9    28    1
    17    28    29    1
    18    29    30   ar
    19    30    31   ar
    20    31    32    1
    21    31    33   ar
    22    33    34   ar
    23    34    35   ar
    24    35    36    1
    25     6    10   ar
    26    10    11   ar
    27    11    12   ar
    28    12    13   ar
    29    13    25    1
    30    25    26   ar
    31    25    27   ar
    32    13    14   ar
    33    14    15   ar
    34    15     2   ar
    35     9     5   ar
    36    35    29   ar
    37    15    10   ar
    38    22    16    1
    39    21    23    1
    40    21    24    1
@<TRIPOS>MOLECULE
*****
 36 40 0 0 0
SMALL
GASTEIGER

@<TRIPOS>ATOM
      1 C         138.4699  137.8486  166.2093 C.3     1  UNL1        0.1336
      2 N         139.0287  139.1360  165.6798 N.ar    1  UNL1       -0.2922
      3 C         139.0918  139.3739  164.2002 C.ar    1  UNL1        0.2783
      4 O         138.5960  138.3244  163.2499 O.2     1  UNL1       -0.2653
      5 C         139.6506  140.6613  163.6706 C.ar    1  UNL1        0.1370
      6 C         140.1464  141.7107  164.6208 C.ar    1  UNL1        0.1060
      7 N         140.6410  142.8726  163.8112 N.ar    1  UNL1       -0.2134
      8 C         140.4510  142.5411  162.3607 C.ar    1  UNL1        0.2015
      9 N         139.8389  141.1745  162.2738 N.ar    1  UNL1       -0.2915
     10 C         140.0833  141.4729  166.1005 C.ar    1  UNL1        0.0352
     11 C         140.5791  142.5223  167.0506 C.ar    1  UNL1        0.0030
     12 C         140.5160  142.2844  168.5302 C.ar    1  UNL1        0.0013
     13 C         139.9572  140.9971  169.0598 C.ar    1  UNL1        0.0154
     14 C         139.4615  139.9476  168.1096 C.ar    1  UNL1        0.0184
     15 C         139.5245  140.1855  166.6300 C.ar    1  UNL1        0.0641
     16 N         140.8100  143.4218  161.2006 N.pl3   1  UNL1       -0.2782
     17 C         139.9710  144.6242  160.8840 C.3     1  UNL1        0.0937
     18 C         140.3300  145.5048  159.7240 C.3     1  UNL1        0.0229
     19 C         141.5280  145.1831  158.8807 C.3     1  UNL1        0.0190
     20 C         142.3670  143.9807  159.1974 C.3     1  UNL1        0.0710
     21 N         143.5651  143.6590  158.3540 N.3     1  UNL1       -0.3208
     22 C         142.0080  143.1000  160.3573 C.3     1  UNL1        0.1089
     23 H         143.6590  144.3571  157.6163 H       1  UNL1        0.1189
     24 H         143.4486  142.7360  157.9359 H       1  UNL1        0.1189
     25 C         139.8942  140.7592  170.5395 C.2     1  UNL1        0.0729
     26 O         140.4135  141.7980  171.4889 O.co2   1  UNL1       -0.5446
     27 O         139.3119  139.4826  171.0698 O.co2   1  UNL1       -0.5446
     28 C         139.4783  140.4484  161.0116 C.3     1  UNL1        0.1365
     29 C         140.4991  139.5942  160.3200 C.ar    1  UNL1        0.0133
     30 C         141.6800  139.0710  161.0826 C.ar    1  UNL1        0.0281
     31 C         142.7008  138.2168  160.3910 C.ar    1  UNL1        0.1399
     32 F         143.8817  137.6936  161.1536 F       1  UNL1       -0.2042
     33 C         142.5406  137.8859  158.9368 C.ar    1  UNL1        0.0305
     34 C         141.3596  138.4091  158.1742 C.ar    1  UNL1        0.0134
     35 C         140.3388  139.2633  158.8658 C.ar    1  UNL1        0.0557
     36 CL        139.1579  139.7865  158.1032 Cl      1  UNL1       -0.0825
@<TRIPOS>UNITY_ATOM_ATTR
26 1
charge -1
@<TRIPOS>BOND
     1     1     2    1
     2     2     3   ar
     3     3     4    2
     4     3     5   ar
     5     5     6   ar
     6     6     7   ar
     7     7     8   ar
     8     8    16    1
     9    16    17    1
    10    17    18    1
    11    18    19    1
    12    19    20    1
    13    20    21    1
    14    20    22    1
    15     8     9   ar
    16     9    28    1
    17    28    29    1
    18    29    30   ar
    19    30    31   ar
    20    31    32    1
    21    31    33   ar
    22    33    34   ar
    23    34    35   ar
    24    35    36    1
    25     6    10   ar
    26    10    11   ar
    27    11    12   ar
    28    12    13   ar
    29    13    25    1
    30    25    26   ar
    31    25    27   ar
    32    13    14   ar
    33    14    15   ar
    34    15     2   ar
    35     9     5   ar
    36    35    29   ar
    37    15    10   ar
    38    22    16    1
    39    21    23    1
    40    21    24    1
@<TRIPOS>MOLECULE
*****
 36 40 0 0 0
SMALL
GASTEIGER

@<TRIPOS>ATOM
      1 C         138.7373  137.4677  155.3124 C.3     1  UNL1        0.1336
      2 N         139.9095  137.4600  156.2483 N.ar    1  UNL1       -0.2922
      3 C         139.9144  138.3555  157.4516 C.ar    1  UNL1        0.2783
      4 O         138.7471  139.2588  157.7190 O.2     1  UNL1       -0.2653
      5 C         141.0866  138.3478  158.3875 C.ar    1  UNL1        0.1370
      6 C         142.2539  137.4445  158.1201 C.ar    1  UNL1        0.1060
      7 N         143.2609  137.6529  159.2120 N.ar    1  UNL1       -0.2134
      8 C         142.7160  138.6849  160.1543 C.ar    1  UNL1        0.2015
      9 N         141.3722  139.1144  159.6447 N.ar    1  UNL1       -0.2915
     10 C         142.2490  136.5489  156.9167 C.ar    1  UNL1        0.0352
     11 C         143.4163  135.6457  156.6493 C.ar    1  UNL1        0.0030
     12 C         143.4114  134.7502  155.4461 C.ar    1  UNL1        0.0013
     13 C         142.2392  134.7579  154.5101 C.ar    1  UNL1        0.0154
     14 C         141.0720  135.6611  154.7775 C.ar    1  UNL1        0.0184
     15 C         141.0769  136.5566  155.9808 C.ar    1  UNL1        0.0641
     16 N         143.3956  139.1975  161.3894 N.pl3   1  UNL1       -0.2782
     17 C         143.2369  138.4680  162.6904 C.3     1  UNL1        0.0937
     18 C         143.9164  138.9805  163.9255 C.3     1  UNL1        0.0229
     19 C         144.7548  140.2226  163.8596 C.3     1  UNL1        0.0190
     20 C         144.9136  140.9521  162.5586 C.3     1  UNL1        0.0710
     21 N         145.7520  142.1942  162.4927 N.3     1  UNL1       -0.3208
     22 C         144.2340  140.4396  161.3235 C.3     1  UNL1        0.1089
     23 H         146.1348  142.3954  163.4165 H       1  UNL1        0.1189
     24 H         145.1755  142.9776  162.1856 H       1  UNL1        0.1189
     25 C         142.2344  133.8623  153.3068 C.2     1  UNL1        0.0729
     26 O         142.6243  132.4203  153.4435 O.co2   1  UNL1       -0.5446
     27 O         141.8396  134.4087  151.9668 O.co2   1  UNL1       -0.5446
     28 C         140.4720  140.1319  160.2807 C.3     1  UNL1        0.1365
     29 C         140.1701  140.0534  161.7479 C.ar    1  UNL1        0.0133
     30 C         139.5109  138.8306  162.3137 C.ar    1  UNL1        0.0281
     31 C         139.2090  138.7521  163.7809 C.ar    1  UNL1        0.1399
     32 F         138.5497  137.5293  164.3466 F       1  UNL1       -0.2042
     33 C         139.5664  139.8965  164.6823 C.ar    1  UNL1        0.0305
     34 C         140.2257  141.1193  164.1166 C.ar    1  UNL1        0.0134
     35 C         140.5276  141.1978  162.6493 C.ar    1  UNL1        0.0557
     36 CL        141.1868  142.4206  162.0836 Cl      1  UNL1       -0.0825
@<TRIPOS>UNITY_ATOM_ATTR
26 1
charge -1
@<TRIPOS>BOND
     1     1     2    1
     2     2     3   ar
     3     3     4    2
     4     3     5   ar
     5     5     6   ar
     6     6     7   ar
     7     7     8   ar
     8     8    16    1
     9    16    17    1
    10    17    18    1
    11    18    19    1
    12    19    20    1
    13    20    21    1
    14    20    22    1
    15     8     9   ar
    16     9    28    1
    17    28    29    1
    18    29    30   ar
    19    30    31   ar
    20    31    32    1
    21    31    33   ar
    22    33    34   ar
    23    34    35   ar
    24    35    36    1
    25     6    10   ar
    26    10    11   ar
    27    11    12   ar
    28    12    13   ar
    29    13    25    1
    30    25    26   ar
    31    25    27   ar
    32    13    14   ar
    33    14    15   ar
    34    15     2   ar
    35     9     5   ar
    36    35    29   ar
    37    15    10   ar
    38    22    16    1
    39    21    23    1
    40    21    24    1
@<TRIPOS>MOLECULE
*****
 36 40 0 0 0
SMALL
GASTEIGER

@<TRIPOS>ATOM
      1 C         138.1464  138.1070  166.3413 C.3     1  UNL1        0.1336
      2 N         138.9153  139.2361  165.7217 N.ar    1  UNL1       -0.2922
      3 C         139.0480  139.3237  164.2302 C.ar    1  UNL1        0.2783
      4 O         138.4119  138.2820  163.3582 O.2     1  UNL1       -0.2653
      5 C         139.8168  140.4528  163.6106 C.ar    1  UNL1        0.1370
      6 C         140.4529  141.4945  164.4825 C.ar    1  UNL1        0.1060
      7 N         141.1445  142.4844  163.5929 N.ar    1  UNL1       -0.2134
      8 C         140.9359  142.0546  162.1710 C.ar    1  UNL1        0.2015
      9 N         140.1153  140.7990  162.1820 N.ar    1  UNL1       -0.2915
     10 C         140.3202  141.4070  165.9742 C.ar    1  UNL1        0.0352
     11 C         140.9563  142.4486  166.8461 C.ar    1  UNL1        0.0030
     12 C         140.8236  142.3611  168.3376 C.ar    1  UNL1        0.0013
     13 C         140.0547  141.2319  168.9572 C.ar    1  UNL1        0.0154
     14 C         139.4186  140.1903  168.0852 C.ar    1  UNL1        0.0184
     15 C         139.5514  140.2778  166.5937 C.ar    1  UNL1        0.0641
     16 N         141.4564  142.7571  160.9521 N.pl3   1  UNL1       -0.2782
     17 C         142.8307  142.4468  160.4372 C.3     1  UNL1        0.0937
     18 C         143.3513  143.1493  159.2184 C.3     1  UNL1        0.0229
     19 C         142.4976  144.1619  158.5145 C.3     1  UNL1        0.0190
     20 C         141.1233  144.4722  159.0293 C.3     1  UNL1        0.0710
     21 N         140.2696  145.4850  158.3253 N.3     1  UNL1       -0.3208
     22 C         140.6027  143.7698  160.2481 C.3     1  UNL1        0.1089
     23 H         140.7774  145.8597  157.5240 H       1  UNL1        0.1189
     24 H         140.0416  146.2433  158.9682 H       1  UNL1        0.1189
     25 C         139.9220  141.1444  170.4488 C.2     1  UNL1        0.0729
     26 O         139.6131  139.8281  171.0983 O.co2   1  UNL1       -0.5446
     27 O         140.0982  142.3732  171.2908 O.co2   1  UNL1       -0.5446
     28 C         139.6712  140.0253  160.9760 C.3     1  UNL1        0.1365
     29 C         140.6855  139.5236  159.9914 C.ar    1  UNL1        0.0133
     30 C         140.7701  140.1351  158.6243 C.ar    1  UNL1        0.0281
     31 C         141.7845  139.6333  157.6397 C.ar    1  UNL1        0.1399
     32 F         141.8691  140.2448  156.2726 F       1  UNL1       -0.2042
     33 C         142.7142  138.5201  158.0223 C.ar    1  UNL1        0.0305
     34 C         142.6296  137.9087  159.3894 C.ar    1  UNL1        0.0134
     35 C         141.6152  138.4104  160.3740 C.ar    1  UNL1        0.0557
     36 CL        141.5306  137.7990  161.7411 Cl      1  UNL1       -0.0825
@<TRIPOS>UNITY_ATOM_ATTR
26 1
charge -1
@<TRIPOS>BOND
     1     1     2    1
     2     2     3   ar
     3     3     4    2
     4     3     5   ar
     5     5     6   ar
     6     6     7   ar
     7     7     8   ar
     8     8    16    1
     9    16    17    1
    10    17    18    1
    11    18    19    1
    12    19    20    1
    13    20    21    1
    14    20    22    1
    15     8     9   ar
    16     9    28    1
    17    28    29    1
    18    29    30   ar
    19    30    31   ar
    20    31    32    1
    21    31    33   ar
    22    33    34   ar
    23    34    35   ar
    24    35    36    1
    25     6    10   ar
    26    10    11   ar
    27    11    12   ar
    28    12    13   ar
    29    13    25    1
    30    25    26   ar
    31    25    27   ar
    32    13    14   ar
    33    14    15   ar
    34    15     2   ar
    35     9     5   ar
    36    35    29   ar
    37    15    10   ar
    38    22    16    1
    39    21    23    1
    40    21    24    1
@<TRIPOS>MOLECULE
*****
 36 40 0 0 0
SMALL
GASTEIGER

@<TRIPOS>ATOM
      1 C         137.4951  142.2268  156.7648 C.3     1  UNL1        0.1336
      2 N         138.5406  141.4351  157.4929 N.ar    1  UNL1       -0.2922
      3 C         139.1829  141.9970  158.7265 C.ar    1  UNL1        0.2783
      4 O         138.7799  143.3506  159.2319 O.2     1  UNL1       -0.2653
      5 C         140.2284  141.2053  159.4547 C.ar    1  UNL1        0.1370
      6 C         140.6315  139.8517  158.9493 C.ar    1  UNL1        0.1060
      7 N         141.6828  139.3072  159.8703 N.ar    1  UNL1       -0.2134
      8 C         141.9295  140.3243  160.9449 C.ar    1  UNL1        0.2015
      9 N         141.0306  141.4973  160.6880 N.ar    1  UNL1       -0.2915
     10 C         139.9891  139.2898  157.7157 C.ar    1  UNL1        0.0352
     11 C         140.3922  137.9363  157.2103 C.ar    1  UNL1        0.0030
     12 C         139.7499  137.3745  155.9768 C.ar    1  UNL1        0.0013
     13 C         138.7044  138.1662  155.2486 C.ar    1  UNL1        0.0154
     14 C         138.3013  139.5197  155.7540 C.ar    1  UNL1        0.0184
     15 C         138.9437  140.0815  156.9875 C.ar    1  UNL1        0.0641
     16 N         142.9040  140.1916  162.0775 N.pl3   1  UNL1       -0.2782
     17 C         142.6424  139.2095  163.1808 C.3     1  UNL1        0.0937
     18 C         143.6168  139.0768  164.3134 C.3     1  UNL1        0.0229
     19 C         144.8528  139.9261  164.3427 C.3     1  UNL1        0.0190
     20 C         145.1144  140.9081  163.2395 C.3     1  UNL1        0.0710
     21 N         146.3505  141.7574  163.2689 N.3     1  UNL1       -0.3208
     22 C         144.1400  141.0409  162.1069 C.3     1  UNL1        0.1089
     23 H         146.8946  141.5373  164.1031 H       1  UNL1        0.1189
     24 H         146.0860  142.7424  163.2856 H       1  UNL1        0.1189
     25 C         138.0620  137.6043  154.0150 C.2     1  UNL1        0.0729
     26 O         138.9097  137.2036  152.8442 O.co2   1  UNL1       -0.5446
     27 O         136.5721  137.4431  153.9523 O.co2   1  UNL1       -0.5446
     28 C         140.9484  142.7437  161.5187 C.3     1  UNL1        0.1365
     29 C         139.8645  142.8907  162.5452 C.ar    1  UNL1        0.0133
     30 C         139.4111  141.6977  163.3332 C.ar    1  UNL1        0.0281
     31 C         138.3272  141.8447  164.3597 C.ar    1  UNL1        0.1399
     32 F         137.8738  140.6517  165.1478 F       1  UNL1       -0.2042
     33 C         137.6968  143.1848  164.5980 C.ar    1  UNL1        0.0305
     34 C         138.1503  144.3778  163.8099 C.ar    1  UNL1        0.0134
     35 C         139.2341  144.2308  162.7835 C.ar    1  UNL1        0.0557
     36 CL        139.6876  145.4238  161.9954 Cl      1  UNL1       -0.0825
@<TRIPOS>UNITY_ATOM_ATTR
26 1
charge -1
@<TRIPOS>BOND
     1     1     2    1
     2     2     3   ar
     3     3     4    2
     4     3     5   ar
     5     5     6   ar
     6     6     7   ar
     7     7     8   ar
     8     8    16    1
     9    16    17    1
    10    17    18    1
    11    18    19    1
    12    19    20    1
    13    20    21    1
    14    20    22    1
    15     8     9   ar
    16     9    28    1
    17    28    29    1
    18    29    30   ar
    19    30    31   ar
    20    31    32    1
    21    31    33   ar
    22    33    34   ar
    23    34    35   ar
    24    35    36    1
    25     6    10   ar
    26    10    11   ar
    27    11    12   ar
    28    12    13   ar
    29    13    25    1
    30    25    26   ar
    31    25    27   ar
    32    13    14   ar
    33    14    15   ar
    34    15     2   ar
    35     9     5   ar
    36    35    29   ar
    37    15    10   ar
    38    22    16    1
    39    21    23    1
    40    21    24    1
@<TRIPOS>MOLECULE
*****
 36 40 0 0 0
SMALL
GASTEIGER

@<TRIPOS>ATOM
      1 C         139.2927  145.2381  155.9534 C.3     1  UNL1        0.1336
      2 N         138.9045  144.0249  156.7454 N.ar    1  UNL1       -0.2922
      3 C         139.5600  143.7502  158.0663 C.ar    1  UNL1        0.2783
      4 O         140.6038  144.6888  158.5952 O.2     1  UNL1       -0.2653
      5 C         139.1718  142.5370  158.8584 C.ar    1  UNL1        0.1370
      6 C         138.1280  141.5984  158.3296 C.ar    1  UNL1        0.1060
      7 N         137.9522  140.4914  159.3263 N.ar    1  UNL1       -0.2134
      8 C         138.8874  140.7458  160.4712 C.ar    1  UNL1        0.2015
      9 N         139.6411  142.0100  160.1820 N.ar    1  UNL1       -0.2915
     10 C         137.4725  141.8731  157.0086 C.ar    1  UNL1        0.0352
     11 C         136.4287  140.9346  156.4798 C.ar    1  UNL1        0.0030
     12 C         135.7732  141.2092  155.1589 C.ar    1  UNL1        0.0013
     13 C         136.1614  142.4225  154.3668 C.ar    1  UNL1        0.0154
     14 C         137.2052  143.3610  154.8956 C.ar    1  UNL1        0.0184
     15 C         137.8607  143.0863  156.2165 C.ar    1  UNL1        0.0641
     16 N         139.0417  139.8867  161.6912 N.pl3   1  UNL1       -0.2782
     17 C         138.1745  140.1259  162.8915 C.3     1  UNL1        0.0937
     18 C         138.3288  139.2669  164.1114 C.3     1  UNL1        0.0229
     19 C         139.3503  138.1687  164.1310 C.3     1  UNL1        0.0190
     20 C         140.2175  137.9295  162.9307 C.3     1  UNL1        0.0710
     21 N         141.2390  136.8312  162.9504 N.3     1  UNL1       -0.3208
     22 C         140.0632  138.7885  161.7108 C.3     1  UNL1        0.1089
     23 H         141.2066  136.3528  163.8507 H       1  UNL1        0.1189
     24 H         142.1679  137.2282  162.8095 H       1  UNL1        0.1189
     25 C         135.5059  142.6971  153.0459 C.2     1  UNL1        0.0729
     26 O         134.5601  141.6939  152.4550 O.co2   1  UNL1       -0.5446
     27 O         135.7960  143.9749  152.3159 O.co2   1  UNL1       -0.5446
     28 C         140.6815  142.6372  161.0620 C.3     1  UNL1        0.1365
     29 C         140.4143  142.8192  162.5267 C.ar    1  UNL1        0.0133
     30 C         139.3031  143.7191  162.9803 C.ar    1  UNL1        0.0281
     31 C         139.0359  143.9011  164.4450 C.ar    1  UNL1        0.1399
     32 F         137.9248  144.8009  164.8985 F       1  UNL1       -0.2042
     33 C         139.8798  143.1832  165.4561 C.ar    1  UNL1        0.0305
     34 C         140.9909  142.2834  165.0026 C.ar    1  UNL1        0.0134
     35 C         141.2582  142.1014  163.5379 C.ar    1  UNL1        0.0557
     36 CL        142.3693  141.2016  163.0844 Cl      1  UNL1       -0.0825
@<TRIPOS>UNITY_ATOM_ATTR
26 1
charge -1
@<TRIPOS>BOND
     1     1     2    1
     2     2     3   ar
     3     3     4    2
     4     3     5   ar
     5     5     6   ar
     6     6     7   ar
     7     7     8   ar
     8     8    16    1
     9    16    17    1
    10    17    18    1
    11    18    19    1
    12    19    20    1
    13    20    21    1
    14    20    22    1
    15     8     9   ar
    16     9    28    1
    17    28    29    1
    18    29    30   ar
    19    30    31   ar
    20    31    32    1
    21    31    33   ar
    22    33    34   ar
    23    34    35   ar
    24    35    36    1
    25     6    10   ar
    26    10    11   ar
    27    11    12   ar
    28    12    13   ar
    29    13    25    1
    30    25    26   ar
    31    25    27   ar
    32    13    14   ar
    33    14    15   ar
    34    15     2   ar
    35     9     5   ar
    36    35    29   ar
    37    15    10   ar
    38    22    16    1
    39    21    23    1
    40    21    24    1
@<TRIPOS>MOLECULE
*****
 36 40 0 0 0
SMALL
GASTEIGER

@<TRIPOS>ATOM
      1 C         143.3391  138.4809  166.9207 C.3     1  UNL1        0.1336
      2 N         142.7597  139.6943  166.2559 N.ar    1  UNL1       -0.2922
      3 C         142.9723  139.9188  164.7882 C.ar    1  UNL1        0.2783
      4 O         143.7645  138.9299  163.9852 O.2     1  UNL1       -0.2653
      5 C         142.3928  141.1321  164.1233 C.ar    1  UNL1        0.1370
      6 C         141.6007  142.1210  164.9262 C.ar    1  UNL1        0.1060
      7 N         141.1545  143.2161  164.0034 N.ar    1  UNL1       -0.2134
      8 C         141.6709  142.9040  162.6301 C.ar    1  UNL1        0.2015
      9 N         142.4362  141.6161  162.7042 N.ar    1  UNL1       -0.2915
     10 C         141.3880  141.8965  166.3941 C.ar    1  UNL1        0.0352
     11 C         140.5959  142.8853  167.1970 C.ar    1  UNL1        0.0030
     12 C         140.3833  142.6608  168.6647 C.ar    1  UNL1        0.0013
     13 C         140.9627  141.4475  169.3296 C.ar    1  UNL1        0.0154
     14 C         141.7549  140.4586  168.5266 C.ar    1  UNL1        0.0184
     15 C         141.9675  140.6831  167.0589 C.ar    1  UNL1        0.0641
     16 N         141.4591  143.7342  161.3988 N.pl3   1  UNL1       -0.2782
     17 C         140.3035  144.6878  161.3269 C.3     1  UNL1        0.0937
     18 C         140.0916  145.5180  160.0957 C.3     1  UNL1        0.0229
     19 C         141.0354  145.3945  158.9364 C.3     1  UNL1        0.0190
     20 C         142.1911  144.4410  159.0083 C.3     1  UNL1        0.0710
     21 N         143.1349  144.3176  157.8490 N.3     1  UNL1       -0.3208
     22 C         142.4029  143.6108  160.2395 C.3     1  UNL1        0.1089
     23 H         142.8427  144.9499  157.1039 H       1  UNL1        0.1189
     24 H         143.1257  143.3579  157.5037 H       1  UNL1        0.1189
     25 C         140.7500  141.2230  170.7974 C.2     1  UNL1        0.0729
     26 O         139.9254  140.0612  171.2666 O.co2   1  UNL1       -0.5446
     27 O         141.3620  142.1602  171.7959 O.co2   1  UNL1       -0.5446
     28 C         143.1242  140.9321  161.5600 C.3     1  UNL1        0.1365
     29 C         142.3335  140.0842  160.6082 C.ar    1  UNL1        0.0133
     30 C         141.0927  139.3855  161.0794 C.ar    1  UNL1        0.0281
     31 C         140.3020  138.5376  160.1276 C.ar    1  UNL1        0.1399
     32 F         139.0612  137.8389  160.5988 F       1  UNL1       -0.2042
     33 C         140.7523  138.3885  158.7046 C.ar    1  UNL1        0.0305
     34 C         141.9931  139.0873  158.2334 C.ar    1  UNL1        0.0134
     35 C         142.7838  139.9352  159.1852 C.ar    1  UNL1        0.0557
     36 CL        144.0246  140.6339  158.7140 Cl      1  UNL1       -0.0825
@<TRIPOS>UNITY_ATOM_ATTR
26 1
charge -1
@<TRIPOS>BOND
     1     1     2    1
     2     2     3   ar
     3     3     4    2
     4     3     5   ar
     5     5     6   ar
     6     6     7   ar
     7     7     8   ar
     8     8    16    1
     9    16    17    1
    10    17    18    1
    11    18    19    1
    12    19    20    1
    13    20    21    1
    14    20    22    1
    15     8     9   ar
    16     9    28    1
    17    28    29    1
    18    29    30   ar
    19    30    31   ar
    20    31    32    1
    21    31    33   ar
    22    33    34   ar
    23    34    35   ar
    24    35    36    1
    25     6    10   ar
    26    10    11   ar
    27    11    12   ar
    28    12    13   ar
    29    13    25    1
    30    25    26   ar
    31    25    27   ar
    32    13    14   ar
    33    14    15   ar
    34    15     2   ar
    35     9     5   ar
    36    35    29   ar
    37    15    10   ar
    38    22    16    1
    39    21    23    1
    40    21    24    1
@<TRIPOS>MOLECULE
*****
 36 40 0 0 0
SMALL
GASTEIGER

@<TRIPOS>ATOM
      1 C         139.6545  137.7194  156.0852 C.3     1  UNL1        0.1336
      2 N         139.1941  138.9421  156.8222 N.ar    1  UNL1       -0.2922
      3 C         139.7478  139.2512  158.1816 C.ar    1  UNL1        0.2783
      4 O         140.7618  138.3377  158.8039 O.2     1  UNL1       -0.2653
      5 C         139.2874  140.4738  158.9186 C.ar    1  UNL1        0.1370
      6 C         138.2734  141.3873  158.2963 C.ar    1  UNL1        0.1060
      7 N         138.0112  142.5107  159.2551 N.ar    1  UNL1       -0.2134
      8 C         138.8633  142.2915  160.4700 C.ar    1  UNL1        0.2015
      9 N         139.6520  141.0326  160.2620 N.ar    1  UNL1       -0.2915
     10 C         137.7197  141.0782  156.9369 C.ar    1  UNL1        0.0352
     11 C         136.7057  141.9917  156.3146 C.ar    1  UNL1        0.0030
     12 C         136.1521  141.6825  154.9552 C.ar    1  UNL1        0.0013
     13 C         136.6125  140.4599  154.2182 C.ar    1  UNL1        0.0154
     14 C         137.6264  139.5464  154.8405 C.ar    1  UNL1        0.0184
     15 C         138.1801  139.8556  156.1998 C.ar    1  UNL1        0.0641
     16 N         138.9171  143.1759  161.6804 N.pl3   1  UNL1       -0.2782
     17 C         137.8283  143.1054  162.7098 C.3     1  UNL1        0.0937
     18 C         137.8821  143.9898  163.9201 C.3     1  UNL1        0.0229
     19 C         139.0247  144.9446  164.1011 C.3     1  UNL1        0.0190
     20 C         140.1135  145.0151  163.0717 C.3     1  UNL1        0.0710
     21 N         141.2561  145.9700  163.2527 N.3     1  UNL1       -0.3208
     22 C         140.0597  144.1307  161.8614 C.3     1  UNL1        0.1089
     23 H         141.1320  146.4876  164.1228 H       1  UNL1        0.1189
     24 H         141.2811  146.6227  162.4693 H       1  UNL1        0.1189
     25 C         136.0588  140.1508  152.8588 C.2     1  UNL1        0.0729
     26 O         136.5969  138.9899  152.0760 O.co2   1  UNL1       -0.5446
     27 O         134.9670  141.0025  152.2822 O.co2   1  UNL1       -0.5446
     28 C         140.6331  140.4371  161.2280 C.3     1  UNL1        0.1365
     29 C         140.1855  140.0431  162.6044 C.ar    1  UNL1        0.0133
     30 C         140.5608  140.8881  163.7856 C.ar    1  UNL1        0.0281
     31 C         140.1132  140.4941  165.1620 C.ar    1  UNL1        0.1399
     32 F         140.4885  141.3390  166.3432 F       1  UNL1       -0.2042
     33 C         139.2904  139.2552  165.3571 C.ar    1  UNL1        0.0305
     34 C         138.9151  138.4103  164.1759 C.ar    1  UNL1        0.0134
     35 C         139.3627  138.8043  162.7995 C.ar    1  UNL1        0.0557
     36 CL        138.9874  137.9594  161.6183 Cl      1  UNL1       -0.0825
@<TRIPOS>UNITY_ATOM_ATTR
26 1
charge -1
@<TRIPOS>BOND
     1     1     2    1
     2     2     3   ar
     3     3     4    2
     4     3     5   ar
     5     5     6   ar
     6     6     7   ar
     7     7     8   ar
     8     8    16    1
     9    16    17    1
    10    17    18    1
    11    18    19    1
    12    19    20    1
    13    20    21    1
    14    20    22    1
    15     8     9   ar
    16     9    28    1
    17    28    29    1
    18    29    30   ar
    19    30    31   ar
    20    31    32    1
    21    31    33   ar
    22    33    34   ar
    23    34    35   ar
    24    35    36    1
    25     6    10   ar
    26    10    11   ar
    27    11    12   ar
    28    12    13   ar
    29    13    25    1
    30    25    26   ar
    31    25    27   ar
    32    13    14   ar
    33    14    15   ar
    34    15     2   ar
    35     9     5   ar
    36    35    29   ar
    37    15    10   ar
    38    22    16    1
    39    21    23    1
    40    21    24    1
