@<TRIPOS>MOLECULE
*****
 18 19 0 0 0
SMALL
GASTEIGER

@<TRIPOS>ATOM
      1 C         139.0581  139.8042  166.6555 C.2     1  UNL1        0.1535
      2 N         138.9695  139.4854  168.1185 N.2     1  UNL1       -0.2470
      3 C         140.1502  140.1095  168.8014 C.3     1  UNL1        0.1720
      4 C         140.5858  140.1272  170.2366 C.3     1  UNL1        0.1652
      5 O         139.7674  139.4227  171.2776 O.3     1  UNL1       -0.3798
      6 C         141.8400  140.8496  170.6309 C.3     1  UNL1        0.1662
      7 O         142.2756  140.8673  172.0661 O.3     1  UNL1       -0.3795
      8 C         142.6584  141.5542  169.5899 C.3     1  UNL1        0.1456
      9 C         143.9125  142.2765  169.9841 C.3     1  UNL1        0.0348
     10 O         142.2228  141.5364  168.1546 O.3     1  UNL1       -0.3428
     11 C         140.9687  140.8141  167.7604 C.3     1  UNL1        0.1937
     12 S         140.2937  140.6254  166.4342 S.3     1  UNL1       -0.0497
     13 H         140.1857  139.5313  172.1460 H       1  UNL1        0.2105
     14 H         141.6399  140.3689  172.6031 H       1  UNL1        0.2105
     15 N         138.0826  139.3769  165.5992 N.pl3   1  UNL1       -0.3135
     16 H         137.1185  139.3592  165.7978 H       1  UNL1        0.1487
     17 C         139.3234  137.6884  164.0633 C.3     1  UNL1        0.0230
     18 C         138.5759  138.9767  164.2404 C.3     1  UNL1        0.0887
@<TRIPOS>BOND
     1    17    18    1
     2    18    15    1
     3    15     1    1
     4     1     2    2
     5     3     2    1
     6     3     4    1
     7     4     5    1
     8     4     6    1
     9     6     7    1
    10     6     8    1
    11     8     9    1
    12     8    10    1
    13    11    10    1
    14    11    12    1
    15    12     1    1
    16    11     3    1
    17    15    16    1
    18     5    13    1
    19     7    14    1
@<TRIPOS>MOLECULE
*****
 18 19 0 0 0
SMALL
GASTEIGER

@<TRIPOS>ATOM
      1 C         142.6226  139.2239  166.4584 C.2     1  UNL1        0.1535
      2 N         143.0557  139.0765  167.8869 N.2     1  UNL1       -0.2470
      3 C         142.5240  140.2495  168.6560 C.3     1  UNL1        0.1720
      4 C         142.6350  140.6359  170.1010 C.3     1  UNL1        0.1652
      5 O         143.3968  139.7635  171.0543 O.3     1  UNL1       -0.3798
      6 C         141.9843  141.8948  170.5929 C.3     1  UNL1        0.1662
      7 O         142.0953  142.2812  172.0380 O.3     1  UNL1       -0.3795
      8 C         141.2225  142.7672  169.6397 C.3     1  UNL1        0.1456
      9 C         140.5718  144.0259  170.1315 C.3     1  UNL1        0.0348
     10 O         141.1115  142.3807  168.1945 O.3     1  UNL1       -0.3428
     11 C         141.7622  141.1219  167.7027 C.3     1  UNL1        0.1937
     12 S         141.8232  140.4880  166.3446 S.3     1  UNL1       -0.0497
     13 H         143.3710  140.1546  171.9416 H       1  UNL1        0.2105
     14 H         142.6164  141.6143  172.5119 H       1  UNL1        0.2105
     15 N         142.9342  138.2741  165.3401 N.pl3   1  UNL1       -0.3135
     16 H         142.6714  137.3279  165.4103 H       1  UNL1        0.1487
     17 C         144.9361  139.5197  164.2488 C.3     1  UNL1        0.0230
     18 C         143.6463  138.7657  164.1149 C.3     1  UNL1        0.0887
@<TRIPOS>BOND
     1    17    18    1
     2    18    15    1
     3    15     1    1
     4     1     2    2
     5     3     2    1
     6     3     4    1
     7     4     5    1
     8     4     6    1
     9     6     7    1
    10     6     8    1
    11     8     9    1
    12     8    10    1
    13    11    10    1
    14    11    12    1
    15    12     1    1
    16    11     3    1
    17    15    16    1
    18     5    13    1
    19     7    14    1
@<TRIPOS>MOLECULE
*****
 18 19 0 0 0
SMALL
GASTEIGER

@<TRIPOS>ATOM
      1 C         140.5857  144.2017  164.5040 C.2     1  UNL1        0.1535
      2 N         141.7940  144.6103  163.7148 N.2     1  UNL1       -0.2470
      3 C         142.7849  143.4855  163.7684 C.3     1  UNL1        0.1720
      4 C         144.1528  143.3237  163.1746 C.3     1  UNL1        0.1652
      5 O         144.7488  144.4276  162.3523 O.3     1  UNL1       -0.3798
      6 C         144.9249  142.0581  163.4032 C.3     1  UNL1        0.1662
      7 O         146.2928  141.8964  162.8095 O.3     1  UNL1       -0.3795
      8 C         144.3289  140.9542  164.2256 C.3     1  UNL1        0.1456
      9 C         145.1008  139.6886  164.4541 C.3     1  UNL1        0.0348
     10 O         142.9609  141.1160  164.8193 O.3     1  UNL1       -0.3428
     11 C         142.1889  142.3816  164.5907 C.3     1  UNL1        0.1937
     12 S         140.8297  142.8242  165.0453 S.3     1  UNL1       -0.0497
     13 H         145.6305  144.1631  162.0465 H       1  UNL1        0.2105
     14 H         146.5257  142.6956  162.3116 H       1  UNL1        0.2105
     15 N         139.3502  145.0258  164.7148 N.pl3   1  UNL1       -0.3135
     16 H         139.4263  145.9547  165.0319 H       1  UNL1        0.1487
     17 C         137.7002  143.8318  163.1018 C.3     1  UNL1        0.0230
     18 C         137.9988  144.4346  164.4425 C.3     1  UNL1        0.0887
@<TRIPOS>BOND
     1    17    18    1
     2    18    15    1
     3    15     1    1
     4     1     2    2
     5     3     2    1
     6     3     4    1
     7     4     5    1
     8     4     6    1
     9     6     7    1
    10     6     8    1
    11     8     9    1
    12     8    10    1
    13    11    10    1
    14    11    12    1
    15    12     1    1
    16    11     3    1
    17    15    16    1
    18     5    13    1
    19     7    14    1
@<TRIPOS>MOLECULE
*****
 18 19 0 0 0
SMALL
GASTEIGER

@<TRIPOS>ATOM
      1 C         143.3580  142.3463  166.3515 C.2     1  UNL1        0.1535
      2 N         143.5707  142.7894  167.7687 N.2     1  UNL1       -0.2470
      3 C         142.4122  142.2999  168.5863 C.3     1  UNL1        0.1720
      4 C         142.0830  142.4369  170.0433 C.3     1  UNL1        0.1652
      5 O         143.0117  143.1825  170.9552 O.3     1  UNL1       -0.3798
      6 C         140.8251  141.8282  170.5884 C.3     1  UNL1        0.1662
      7 O         140.4958  141.9651  172.0454 O.3     1  UNL1       -0.3795
      8 C         139.8964  141.0825  169.6765 C.3     1  UNL1        0.1456
      9 C         138.6385  140.4738  170.2216 C.3     1  UNL1        0.0348
     10 O         140.2256  140.9456  168.2195 O.3     1  UNL1       -0.3428
     11 C         141.4835  141.5543  167.6744 C.3     1  UNL1        0.1937
     12 S         142.0681  141.5829  166.2933 S.3     1  UNL1       -0.0497
     13 H         142.6532  143.1772  171.8565 H       1  UNL1        0.2105
     14 H         141.1946  142.4713  172.4886 H       1  UNL1        0.2105
     15 N         144.2743  142.6186  165.1956 N.pl3   1  UNL1       -0.3135
     16 H         145.2008  142.2862  165.2130 H       1  UNL1        0.1487
     17 C         143.6931  144.8934  164.0833 C.3     1  UNL1        0.0230
     18 C         143.7791  143.3975  164.0133 C.3     1  UNL1        0.0887
@<TRIPOS>BOND
     1    17    18    1
     2    18    15    1
     3    15     1    1
     4     1     2    2
     5     3     2    1
     6     3     4    1
     7     4     5    1
     8     4     6    1
     9     6     7    1
    10     6     8    1
    11     8     9    1
    12     8    10    1
    13    11    10    1
    14    11    12    1
    15    12     1    1
    16    11     3    1
    17    15    16    1
    18     5    13    1
    19     7    14    1
@<TRIPOS>MOLECULE
*****
 18 19 0 0 0
SMALL
GASTEIGER

@<TRIPOS>ATOM
      1 C         142.3198  143.9936  161.3859 C.2     1  UNL1        0.1535
      2 N         143.7352  143.6282  161.7221 N.2     1  UNL1       -0.2470
      3 C         143.7148  142.3185  162.4531 C.3     1  UNL1        0.1720
      4 C         144.8120  141.4729  163.0285 C.3     1  UNL1        0.1652
      5 O         146.2401  141.9170  162.9129 O.3     1  UNL1       -0.3798
      6 C         144.4811  140.1833  163.7194 C.3     1  UNL1        0.1662
      7 O         145.5783  139.3377  164.2948 O.3     1  UNL1       -0.3795
      8 C         143.0530  139.7392  163.8350 C.3     1  UNL1        0.1456
      9 C         142.7221  138.4496  164.5259 C.3     1  UNL1        0.0348
     10 O         141.9558  140.5849  163.2596 O.3     1  UNL1       -0.3428
     11 C         142.2867  141.8745  162.5687 C.3     1  UNL1        0.1937
     12 S         141.4246  142.9098  161.9091 S.3     1  UNL1       -0.0497
     13 H         146.8177  141.2611  163.3337 H       1  UNL1        0.2105
     14 H         146.4340  139.7657  164.1349 H       1  UNL1        0.2105
     15 N         141.8774  145.2264  160.6548 N.pl3   1  UNL1       -0.3135
     16 H         142.5436  145.8077  160.2219 H       1  UNL1        0.1487
     17 C         139.7562  146.2655  161.7367 C.3     1  UNL1        0.0230
     18 C         140.4199  145.5734  160.5832 C.3     1  UNL1        0.0887
@<TRIPOS>BOND
     1    17    18    1
     2    18    15    1
     3    15     1    1
     4     1     2    2
     5     3     2    1
     6     3     4    1
     7     4     5    1
     8     4     6    1
     9     6     7    1
    10     6     8    1
    11     8     9    1
    12     8    10    1
    13    11    10    1
    14    11    12    1
    15    12     1    1
    16    11     3    1
    17    15    16    1
    18     5    13    1
    19     7    14    1
@<TRIPOS>MOLECULE
*****
 18 19 0 0 0
SMALL
GASTEIGER

@<TRIPOS>ATOM
      1 C         140.0920  140.8107  166.9743 C.2     1  UNL1        0.1535
      2 N         138.9833  140.5573  165.9963 N.2     1  UNL1       -0.2470
      3 C         138.9550  141.6974  165.0220 C.3     1  UNL1        0.1720
      4 C         138.0765  141.9870  163.8412 C.3     1  UNL1        0.1652
      5 O         136.9853  141.0288  163.4653 O.3     1  UNL1       -0.3798
      6 C         138.2892  143.2346  163.0361 C.3     1  UNL1        0.1662
      7 O         137.4108  143.5242  161.8552 O.3     1  UNL1       -0.3795
      8 C         139.3805  144.1928  163.4119 C.3     1  UNL1        0.1456
      9 C         139.5932  145.4404  162.6069 C.3     1  UNL1        0.0348
     10 O         140.2589  143.9032  164.5928 O.3     1  UNL1       -0.3428
     11 C         140.0462  142.6555  165.3978 C.3     1  UNL1        0.1937
     12 S         140.7489  142.1075  166.6044 S.3     1  UNL1       -0.0497
     13 H         136.5157  141.3634  162.6853 H       1  UNL1        0.2105
     14 H         136.7624  142.8101  161.7518 H       1  UNL1        0.2105
     15 N         140.4764  139.9232  168.1209 N.pl3   1  UNL1       -0.3135
     16 H         140.9690  139.0876  167.9529 H       1  UNL1        0.1487
     17 C         138.6713  140.3196  169.9470 C.3     1  UNL1        0.0230
     18 C         140.1102  140.3090  169.5234 C.3     1  UNL1        0.0887
@<TRIPOS>BOND
     1    17    18    1
     2    18    15    1
     3    15     1    1
     4     1     2    2
     5     3     2    1
     6     3     4    1
     7     4     5    1
     8     4     6    1
     9     6     7    1
    10     6     8    1
    11     8     9    1
    12     8    10    1
    13    11    10    1
    14    11    12    1
    15    12     1    1
    16    11     3    1
    17    15    16    1
    18     5    13    1
    19     7    14    1
@<TRIPOS>MOLECULE
*****
 18 19 0 0 0
SMALL
GASTEIGER

@<TRIPOS>ATOM
      1 C         141.5572  140.9127  167.4374 C.2     1  UNL1        0.1535
      2 N         140.5739  140.0207  166.7392 N.2     1  UNL1       -0.2470
      3 C         139.7141  140.8782  165.8587 C.3     1  UNL1        0.1720
      4 C         138.5781  140.5480  164.9366 C.3     1  UNL1        0.1652
      5 O         138.1262  139.1260  164.7826 O.3     1  UNL1       -0.3798
      6 C         137.8939  141.6397  164.1684 C.3     1  UNL1        0.1662
      7 O         136.7579  141.3095  163.2463 O.3     1  UNL1       -0.3795
      8 C         138.3458  143.0617  164.3224 C.3     1  UNL1        0.1456
      9 C         137.6617  144.1535  163.5543 C.3     1  UNL1        0.0348
     10 O         139.4819  143.3920  165.2446 O.3     1  UNL1       -0.3428
     11 C         140.1660  142.3002  166.0127 C.3     1  UNL1        0.1937
     12 S         141.3051  142.3215  166.9884 S.3     1  UNL1       -0.0497
     13 H         137.3880  139.0875  164.1544 H       1  UNL1        0.2105
     14 H         136.5947  140.3535  163.2637 H       1  UNL1        0.2105
     15 N         142.6081  140.4730  168.4133 N.pl3   1  UNL1       -0.3135
     16 H         143.1641  139.6848  168.2161 H       1  UNL1        0.1487
     17 C         143.8378  142.3266  169.7556 C.3     1  UNL1        0.0230
     18 C         142.8120  141.2343  169.6896 C.3     1  UNL1        0.0887
@<TRIPOS>BOND
     1    17    18    1
     2    18    15    1
     3    15     1    1
     4     1     2    2
     5     3     2    1
     6     3     4    1
     7     4     5    1
     8     4     6    1
     9     6     7    1
    10     6     8    1
    11     8     9    1
    12     8    10    1
    13    11    10    1
    14    11    12    1
    15    12     1    1
    16    11     3    1
    17    15    16    1
    18     5    13    1
    19     7    14    1
@<TRIPOS>MOLECULE
*****
 18 19 0 0 0
SMALL
GASTEIGER

@<TRIPOS>ATOM
      1 C         139.6982  140.8388  166.2222 C.2     1  UNL1        0.1535
      2 N         138.9749  141.9371  165.5008 N.2     1  UNL1       -0.2470
      3 C         140.0004  142.8769  164.9394 C.3     1  UNL1        0.1720
      4 C         139.8738  144.1370  164.1357 C.3     1  UNL1        0.1652
      5 O         138.5166  144.6545  163.7611 O.3     1  UNL1       -0.3798
      6 C         141.1044  144.8797  163.7064 C.3     1  UNL1        0.1662
      7 O         140.9778  146.1397  162.9026 O.3     1  UNL1       -0.3795
      8 C         142.4616  144.3621  164.0809 C.3     1  UNL1        0.1456
      9 C         143.6921  145.1047  163.6517 C.3     1  UNL1        0.0348
     10 O         142.5882  143.1020  164.8847 O.3     1  UNL1       -0.3428
     11 C         141.3576  142.3594  165.3140 C.3     1  UNL1        0.1937
     12 S         141.1708  141.0998  166.1068 S.3     1  UNL1       -0.0497
     13 H         138.6127  145.4710  163.2464 H       1  UNL1        0.2105
     14 H         140.0396  146.3321  162.7486 H       1  UNL1        0.2105
     15 N         139.0608  139.6825  166.9341 N.pl3   1  UNL1       -0.3135
     16 H         139.1687  139.5839  167.9077 H       1  UNL1        0.1487
     17 C         138.8871  137.9332  165.0211 C.3     1  UNL1        0.0230
     18 C         138.2591  138.6765  166.1627 C.3     1  UNL1        0.0887
@<TRIPOS>BOND
     1    17    18    1
     2    18    15    1
     3    15     1    1
     4     1     2    2
     5     3     2    1
     6     3     4    1
     7     4     5    1
     8     4     6    1
     9     6     7    1
    10     6     8    1
    11     8     9    1
    12     8    10    1
    13    11    10    1
    14    11    12    1
    15    12     1    1
    16    11     3    1
    17    15    16    1
    18     5    13    1
    19     7    14    1
@<TRIPOS>MOLECULE
*****
 18 19 0 0 0
SMALL
GASTEIGER

@<TRIPOS>ATOM
      1 C         141.9058  141.7487  165.9219 C.2     1  UNL1        0.1535
      2 N         140.4275  141.6311  165.6962 N.2     1  UNL1       -0.2470
      3 C         140.0182  142.7078  164.7353 C.3     1  UNL1        0.1720
      4 C         138.6881  143.0763  164.1481 C.3     1  UNL1        0.1652
      5 O         137.4628  142.2933  164.5162 O.3     1  UNL1       -0.3798
      6 C         138.5832  144.2280  163.1926 C.3     1  UNL1        0.1662
      7 O         137.2531  144.5965  162.6054 O.3     1  UNL1       -0.3795
      8 C         139.8085  145.0110  162.8244 C.3     1  UNL1        0.1456
      9 C         139.7036  146.1626  161.8690 C.3     1  UNL1        0.0348
     10 O         141.1387  144.6424  163.4117 O.3     1  UNL1       -0.3428
     11 C         141.2435  143.4908  164.3671 C.3     1  UNL1        0.1937
     12 S         142.4101  142.8980  165.1005 S.3     1  UNL1       -0.0497
     13 H         136.6936  142.6596  164.0526 H       1  UNL1        0.2105
     14 H         136.5720  143.9950  162.9447 H       1  UNL1        0.2105
     15 N         142.7343  140.8710  166.8125 N.pl3   1  UNL1       -0.3135
     16 H         143.4541  141.2628  167.3580 H       1  UNL1        0.1487
     17 C         143.4508  138.4306  166.2828 C.3     1  UNL1        0.0230
     18 C         142.4660  139.3964  166.8721 C.3     1  UNL1        0.0887
@<TRIPOS>BOND
     1    17    18    1
     2    18    15    1
     3    15     1    1
     4     1     2    2
     5     3     2    1
     6     3     4    1
     7     4     5    1
     8     4     6    1
     9     6     7    1
    10     6     8    1
    11     8     9    1
    12     8    10    1
    13    11    10    1
    14    11    12    1
    15    12     1    1
    16    11     3    1
    17    15    16    1
    18     5    13    1
    19     7    14    1
