@<TRIPOS>MOLECULE
*****
 39 42 0 0 0
SMALL
GASTEIGER

@<TRIPOS>ATOM
      1 C         144.1387  142.4282  159.1254 C.3     1  UNL1        0.1031
      2 C         147.3839  142.1297  156.0222 C.ar    1  UNL1        0.0536
      3 C         146.1117  141.3532  155.8540 C.ar    1  UNL1        0.0042
      4 C         145.0300  141.4526  156.8884 C.ar    1  UNL1       -0.0025
      5 C         145.2204  142.3287  158.0910 C.ar    1  UNL1       -0.0036
      6 C         146.4927  143.1052  158.2592 C.ar    1  UNL1       -0.0025
      7 C         147.5744  143.0058  157.2248 C.ar    1  UNL1        0.0042
      8 N         148.3336  142.7719  153.6908 N.am    1  UNL1       -0.2761
      9 C         148.4657  142.0302  154.9879 C.2     1  UNL1        0.2490
     10 O         149.6795  141.1891  155.2506 O.2     1  UNL1       -0.2699
     11 C         150.6259  143.5532  152.7501 C.3     1  UNL1        0.0233
     12 C         149.4153  142.6724  152.6564 C.3     1  UNL1        0.0938
     13 C         147.1197  143.6130  153.4280 C.3     1  UNL1        0.0938
     14 C         147.1877  145.1018  153.5981 C.3     1  UNL1        0.0233
     15 C         142.9460  143.3045  158.8814 C.ar    1  UNL1       -0.0024
     16 C         142.9171  144.2178  157.6918 C.ar    1  UNL1       -0.0026
     17 C         141.7245  145.0941  157.4478 C.ar    1  UNL1        0.0010
     18 C         140.5606  145.0571  158.3934 C.ar    1  UNL1        0.0147
     19 C         140.5894  144.1438  159.5829 C.ar    1  UNL1        0.0529
     20 C         141.7822  143.2675  159.8269 C.ar    1  UNL1        0.0121
     21 N         139.4256  144.1068  160.5285 N.am    1  UNL1       -0.2499
     22 C         139.4549  144.9234  161.7863 C.2     1  UNL1        0.4055
     23 O         140.6482  145.7770  162.0987 O.2     1  UNL1       -0.2261
     24 H         138.6424  143.5466  160.3234 H       1  UNL1        0.1582
     25 O         138.2911  144.8864  162.7319 O.3     1  UNL1       -0.4304
     26 C         137.6633  143.5740  163.0977 C.3     1  UNL1        0.2574
     27 N         144.2496  141.6514  160.4037 N.3     1  UNL1       -0.2644
     28 C         143.6513  140.2794  160.5020 C.3     1  UNL1        0.0901
     29 C         143.7622  139.5026  161.7804 C.3     1  UNL1        0.0899
     30 N         144.4715  140.0977  162.9605 N.3     1  UNL1       -0.2665
     31 C         145.0699  141.4697  162.8622 C.3     1  UNL1        0.0899
     32 C         144.9590  142.2465  161.5839 C.3     1  UNL1        0.0901
     33 C         144.5825  139.3209  164.2389 C.3     1  UNL1        0.1008
     34 C         143.7747  139.7271  165.4358 C.ar    1  UNL1        0.0130
     35 C         143.4483  138.7189  166.4976 C.ar    1  UNL1        0.0002
     36 C         142.6405  139.1251  167.6944 C.ar    1  UNL1        0.0204
     37 C         142.1591  140.5393  167.8295 C.ar    1  UNL1        0.0989
     38 N         142.4854  141.5473  166.7678 N.ar    1  UNL1       -0.2426
     39 C         143.2932  141.1412  165.5709 C.ar    1  UNL1        0.0959
@<TRIPOS>BOND
     1    11    12    1
     2    12     8    1
     3     8    13    1
     4    13    14    1
     5     8     9   am
     6     9    10    2
     7     9     2    1
     8     2     3   ar
     9     3     4   ar
    10     4     5   ar
    11     5     1    1
    12     1    15    1
    13    15    16   ar
    14    16    17   ar
    15    17    18   ar
    16    18    19   ar
    17    19    21    1
    18    21    22   am
    19    22    23    2
    20    22    25    1
    21    25    26    1
    22    19    20   ar
    23     1    27    1
    24    27    28    1
    25    28    29    1
    26    29    30    1
    27    30    33    1
    28    33    34    1
    29    34    35   ar
    30    35    36   ar
    31    36    37   ar
    32    37    38   ar
    33    38    39   ar
    34    30    31    1
    35    31    32    1
    36     5     6   ar
    37     6     7   ar
    38     7     2   ar
    39    20    15   ar
    40    32    27    1
    41    39    34   ar
    42    21    24    1
@<TRIPOS>MOLECULE
*****
 39 42 0 0 0
SMALL
GASTEIGER

@<TRIPOS>ATOM
      1 C         140.6769  139.1154  158.1616 C.3     1  UNL1        0.1031
      2 C         141.3207  136.2297  154.7693 C.ar    1  UNL1        0.0536
      3 C         139.9279  136.5786  155.2030 C.ar    1  UNL1        0.0042
      4 C         139.7133  137.5405  156.3338 C.ar    1  UNL1       -0.0025
      5 C         140.8915  138.1535  157.0308 C.ar    1  UNL1       -0.0036
      6 C         142.2844  137.8045  156.5971 C.ar    1  UNL1       -0.0025
      7 C         142.4990  136.8426  155.4663 C.ar    1  UNL1        0.0042
      8 N         141.5458  133.7911  153.9017 N.am    1  UNL1       -0.2761
      9 C         141.5354  135.2678  153.6385 C.2     1  UNL1        0.2490
     10 O         141.7396  135.7825  152.2445 O.2     1  UNL1       -0.2699
     11 C         141.1321  131.4678  152.8149 C.3     1  UNL1        0.0233
     12 C         141.7604  132.8292  152.7709 C.3     1  UNL1        0.0938
     13 C         141.3416  133.2763  155.2957 C.3     1  UNL1        0.0938
     14 C         142.5263  132.9718  156.1639 C.3     1  UNL1        0.0233
     15 C         140.4266  140.5662  157.8748 C.ar    1  UNL1       -0.0024
     16 C         140.5015  141.0761  156.4661 C.ar    1  UNL1       -0.0026
     17 C         140.2511  142.5270  156.1793 C.ar    1  UNL1        0.0010
     18 C         139.9259  143.4680  157.3012 C.ar    1  UNL1        0.0147
     19 C         139.8510  142.9582  158.7099 C.ar    1  UNL1        0.0529
     20 C         140.1013  141.5073  158.9967 C.ar    1  UNL1        0.0121
     21 N         139.5257  143.8993  159.8318 N.am    1  UNL1       -0.2499
     22 C         140.5802  144.8228  160.3656 C.2     1  UNL1        0.4055
     23 O         141.9601  144.8053  159.7775 O.2     1  UNL1       -0.2261
     24 H         138.6201  143.9107  160.2177 H       1  UNL1        0.1582
     25 O         140.2550  145.7638  161.4875 O.3     1  UNL1       -0.4304
     26 C         139.3026  145.3429  162.5672 C.3     1  UNL1        0.2574
     27 N         140.7126  138.6264  159.5792 N.3     1  UNL1       -0.2644
     28 C         142.0292  138.3975  160.2607 C.3     1  UNL1        0.0901
     29 C         142.0648  137.9086  161.6784 C.3     1  UNL1        0.0899
     30 N         140.7841  137.6485  162.4145 N.3     1  UNL1       -0.2665
     31 C         139.4675  137.8774  161.7330 C.3     1  UNL1        0.0899
     32 C         139.4318  138.3663  160.3154 C.3     1  UNL1        0.0901
     33 C         140.8197  137.1595  163.8321 C.3     1  UNL1        0.1008
     34 C         140.2121  137.9864  164.9262 C.ar    1  UNL1        0.0130
     35 C         138.7890  137.7540  165.3397 C.ar    1  UNL1        0.0002
     36 C         138.1814  138.5809  166.4338 C.ar    1  UNL1        0.0204
     37 C         138.9968  139.6402  167.1143 C.ar    1  UNL1        0.0989
     38 N         140.4198  139.8726  166.7008 N.ar    1  UNL1       -0.2426
     39 C         141.0274  139.0456  165.6067 C.ar    1  UNL1        0.0959
@<TRIPOS>BOND
     1    11    12    1
     2    12     8    1
     3     8    13    1
     4    13    14    1
     5     8     9   am
     6     9    10    2
     7     9     2    1
     8     2     3   ar
     9     3     4   ar
    10     4     5   ar
    11     5     1    1
    12     1    15    1
    13    15    16   ar
    14    16    17   ar
    15    17    18   ar
    16    18    19   ar
    17    19    21    1
    18    21    22   am
    19    22    23    2
    20    22    25    1
    21    25    26    1
    22    19    20   ar
    23     1    27    1
    24    27    28    1
    25    28    29    1
    26    29    30    1
    27    30    33    1
    28    33    34    1
    29    34    35   ar
    30    35    36   ar
    31    36    37   ar
    32    37    38   ar
    33    38    39   ar
    34    30    31    1
    35    31    32    1
    36     5     6   ar
    37     6     7   ar
    38     7     2   ar
    39    20    15   ar
    40    32    27    1
    41    39    34   ar
    42    21    24    1
@<TRIPOS>MOLECULE
*****
 39 42 0 0 0
SMALL
GASTEIGER

@<TRIPOS>ATOM
      1 C         142.7262  137.5719  156.8353 C.3     1  UNL1        0.1031
      2 C         144.9324  140.7656  154.5587 C.ar    1  UNL1        0.0536
      3 C         143.8263  141.1431  155.4989 C.ar    1  UNL1        0.0042
      4 C         143.0909  140.0785  156.2578 C.ar    1  UNL1       -0.0025
      5 C         143.4616  138.6364  156.0764 C.ar    1  UNL1       -0.0036
      6 C         144.5676  138.2589  155.1362 C.ar    1  UNL1       -0.0025
      7 C         145.3030  139.3235  154.3773 C.ar    1  UNL1        0.0042
      8 N         146.9274  142.4184  154.3632 N.am    1  UNL1       -0.2761
      9 C         145.6678  141.8301  153.7998 C.2     1  UNL1        0.2490
     10 O         145.1436  142.3065  152.4776 O.2     1  UNL1       -0.2699
     11 C         147.2141  144.9117  153.6914 C.3     1  UNL1        0.0233
     12 C         147.6628  143.4829  153.6043 C.3     1  UNL1        0.0938
     13 C         147.4516  141.9420  155.6854 C.3     1  UNL1        0.0938
     14 C         147.3250  142.8128  156.9002 C.3     1  UNL1        0.0233
     15 C         142.6773  136.1701  156.3039 C.ar    1  UNL1       -0.0024
     16 C         142.3114  135.9238  154.8701 C.ar    1  UNL1       -0.0026
     17 C         142.2625  134.5220  154.3387 C.ar    1  UNL1        0.0010
     18 C         142.5795  133.3664  155.2409 C.ar    1  UNL1        0.0147
     19 C         142.9453  133.6125  156.6746 C.ar    1  UNL1        0.0529
     20 C         142.9942  135.0144  157.2061 C.ar    1  UNL1        0.0121
     21 N         143.2623  132.4569  157.5769 N.am    1  UNL1       -0.2499
     22 C         144.5212  131.6679  157.3708 C.2     1  UNL1        0.4055
     23 O         145.4632  132.0344  156.2625 O.2     1  UNL1       -0.2261
     24 H         142.6440  132.2163  158.3043 H       1  UNL1        0.1582
     25 O         144.8381  130.5122  158.2731 O.3     1  UNL1       -0.4304
     26 C         143.8697  129.3740  158.4023 C.3     1  UNL1        0.2574
     27 N         142.0397  137.9091  158.1256 N.3     1  UNL1       -0.2644
     28 C         142.8115  137.8953  159.4118 C.3     1  UNL1        0.0901
     29 C         142.1249  138.2325  160.7021 C.3     1  UNL1        0.0899
     30 N         140.6666  138.5837  160.7063 N.3     1  UNL1       -0.2665
     31 C         139.8948  138.5975  159.4201 C.3     1  UNL1        0.0899
     32 C         140.5813  138.2603  158.1298 C.3     1  UNL1        0.0901
     33 C         139.9800  138.9209  161.9966 C.3     1  UNL1        0.1008
     34 C         139.2890  140.2428  162.1553 C.ar    1  UNL1        0.0130
     35 C         140.0659  141.5176  162.0090 C.ar    1  UNL1        0.0002
     36 C         139.3749  142.8394  162.1677 C.ar    1  UNL1        0.0204
     37 C         137.9069  142.8865  162.4726 C.ar    1  UNL1        0.0989
     38 N         137.1300  141.6117  162.6188 N.ar    1  UNL1       -0.2426
     39 C         137.8211  140.2899  162.4601 C.ar    1  UNL1        0.0959
@<TRIPOS>BOND
     1    11    12    1
     2    12     8    1
     3     8    13    1
     4    13    14    1
     5     8     9   am
     6     9    10    2
     7     9     2    1
     8     2     3   ar
     9     3     4   ar
    10     4     5   ar
    11     5     1    1
    12     1    15    1
    13    15    16   ar
    14    16    17   ar
    15    17    18   ar
    16    18    19   ar
    17    19    21    1
    18    21    22   am
    19    22    23    2
    20    22    25    1
    21    25    26    1
    22    19    20   ar
    23     1    27    1
    24    27    28    1
    25    28    29    1
    26    29    30    1
    27    30    33    1
    28    33    34    1
    29    34    35   ar
    30    35    36   ar
    31    36    37   ar
    32    37    38   ar
    33    38    39   ar
    34    30    31    1
    35    31    32    1
    36     5     6   ar
    37     6     7   ar
    38     7     2   ar
    39    20    15   ar
    40    32    27    1
    41    39    34   ar
    42    21    24    1
@<TRIPOS>MOLECULE
*****
 39 42 0 0 0
SMALL
GASTEIGER

@<TRIPOS>ATOM
      1 C         142.8800  138.1560  157.2480 C.3     1  UNL1        0.1031
      2 C         140.4625  138.4574  161.0315 C.ar    1  UNL1        0.0536
      3 C         141.9027  138.0424  161.0927 C.ar    1  UNL1        0.0042
      4 C         142.7085  137.9419  159.8315 C.ar    1  UNL1       -0.0025
      5 C         142.0742  138.2564  158.5092 C.ar    1  UNL1       -0.0036
      6 C         140.6340  138.6714  158.4480 C.ar    1  UNL1       -0.0025
      7 C         139.8282  138.7719  159.7092 C.ar    1  UNL1        0.0042
      8 N         139.5035  139.8815  162.9814 N.am    1  UNL1       -0.2761
      9 C         139.6567  138.5578  162.2927 C.2     1  UNL1        0.2490
     10 O         139.0042  137.3346  162.8652 O.2     1  UNL1       -0.2699
     11 C         138.2309  141.3218  164.7296 C.3     1  UNL1        0.0233
     12 C         138.6976  139.9820  164.2425 C.3     1  UNL1        0.0938
     13 C         140.1560  141.1049  162.4088 C.3     1  UNL1        0.0938
     14 C         141.5272  141.5067  162.8652 C.3     1  UNL1        0.0233
     15 C         142.7203  136.9661  156.3488 C.ar    1  UNL1       -0.0024
     16 C         141.6541  136.9610  155.2936 C.ar    1  UNL1       -0.0026
     17 C         141.4945  135.7711  154.3944 C.ar    1  UNL1        0.0010
     18 C         142.4010  134.5863  154.5502 C.ar    1  UNL1        0.0147
     19 C         143.4672  134.5913  155.6053 C.ar    1  UNL1        0.0529
     20 C         143.6269  135.7812  156.5046 C.ar    1  UNL1        0.0121
     21 N         144.3737  133.4064  155.7611 N.am    1  UNL1       -0.2499
     22 C         143.9366  132.2307  156.5836 C.2     1  UNL1        0.4055
     23 O         142.5929  132.2398  157.2504 O.2     1  UNL1       -0.2261
     24 H         145.2556  133.4005  155.3236 H       1  UNL1        0.1582
     25 O         144.8432  131.0458  156.7395 O.3     1  UNL1       -0.4304
     26 C         144.8291  129.9508  155.7144 C.3     1  UNL1        0.2574
     27 N         143.8454  139.2454  156.8860 N.3     1  UNL1       -0.2644
     28 C         144.0119  140.4308  157.7899 C.3     1  UNL1        0.0901
     29 C         144.9774  141.5203  157.4279 C.3     1  UNL1        0.0899
     30 N         145.7764  141.4242  156.1621 N.3     1  UNL1       -0.2665
     31 C         145.6099  140.2388  155.2582 C.3     1  UNL1        0.0899
     32 C         144.6445  139.1494  155.6201 C.3     1  UNL1        0.0901
     33 C         146.7419  142.5137  155.8001 C.3     1  UNL1        0.1008
     34 C         147.9444  142.2013  154.9596 C.ar    1  UNL1        0.0130
     35 C         149.2065  141.7144  155.6078 C.ar    1  UNL1        0.0002
     36 C         150.4090  141.4020  154.7674 C.ar    1  UNL1        0.0204
     37 C         150.3495  141.5766  153.2787 C.ar    1  UNL1        0.0989
     38 N         149.0874  142.0635  152.6306 N.ar    1  UNL1       -0.2426
     39 C         147.8849  142.3759  153.4710 C.ar    1  UNL1        0.0959
@<TRIPOS>BOND
     1    11    12    1
     2    12     8    1
     3     8    13    1
     4    13    14    1
     5     8     9   am
     6     9    10    2
     7     9     2    1
     8     2     3   ar
     9     3     4   ar
    10     4     5   ar
    11     5     1    1
    12     1    15    1
    13    15    16   ar
    14    16    17   ar
    15    17    18   ar
    16    18    19   ar
    17    19    21    1
    18    21    22   am
    19    22    23    2
    20    22    25    1
    21    25    26    1
    22    19    20   ar
    23     1    27    1
    24    27    28    1
    25    28    29    1
    26    29    30    1
    27    30    33    1
    28    33    34    1
    29    34    35   ar
    30    35    36   ar
    31    36    37   ar
    32    37    38   ar
    33    38    39   ar
    34    30    31    1
    35    31    32    1
    36     5     6   ar
    37     6     7   ar
    38     7     2   ar
    39    20    15   ar
    40    32    27    1
    41    39    34   ar
    42    21    24    1
@<TRIPOS>MOLECULE
*****
 39 42 0 0 0
SMALL
GASTEIGER

@<TRIPOS>ATOM
      1 C         141.0406  139.2853  158.3076 C.3     1  UNL1        0.1031
      2 C         139.9800  138.4893  162.6078 C.ar    1  UNL1        0.0536
      3 C         139.0328  138.0900  161.5154 C.ar    1  UNL1        0.0042
      4 C         139.3864  138.3553  160.0820 C.ar    1  UNL1       -0.0025
      5 C         140.6871  139.0200  159.7410 C.ar    1  UNL1       -0.0036
      6 C         141.6342  139.4193  160.8334 C.ar    1  UNL1       -0.0025
      7 C         141.2807  139.1540  162.2668 C.ar    1  UNL1        0.0042
      8 N         138.6350  139.1030  164.7442 N.am    1  UNL1       -0.2761
      9 C         139.6265  138.2240  164.0412 C.2     1  UNL1        0.2490
     10 O         140.2644  137.0796  164.7715 O.2     1  UNL1       -0.2699
     11 C         139.0039  139.5620  167.2747 C.3     1  UNL1        0.0233
     12 C         138.2815  138.8377  166.1776 C.3     1  UNL1        0.0938
     13 C         137.9970  140.2474  164.0138 C.3     1  UNL1        0.0938
     14 C         138.5748  141.6267  164.1300 C.3     1  UNL1        0.0233
     15 C         140.9870  140.6840  157.7684 C.ar    1  UNL1       -0.0024
     16 C         141.6258  141.0044  156.4496 C.ar    1  UNL1       -0.0026
     17 C         141.5721  142.4031  155.9104 C.ar    1  UNL1        0.0010
     18 C         140.8796  143.4814  156.6900 C.ar    1  UNL1        0.0147
     19 C         140.2409  143.1610  158.0088 C.ar    1  UNL1        0.0529
     20 C         140.2945  141.7623  158.5480 C.ar    1  UNL1        0.0121
     21 N         139.5484  144.2393  158.7884 N.am    1  UNL1       -0.2499
     22 C         140.3306  145.1002  159.7354 C.2     1  UNL1        0.4055
     23 O         141.8054  144.8829  159.9029 O.2     1  UNL1       -0.2261
     24 H         138.5805  144.3820  158.6785 H       1  UNL1        0.1582
     25 O         139.6382  146.1785  160.5150 O.3     1  UNL1       -0.4304
     26 C         139.8538  146.2901  161.9953 C.3     1  UNL1        0.2574
     27 N         141.4478  138.1520  157.4134 N.3     1  UNL1       -0.2644
     28 C         140.4166  137.4378  156.5909 C.3     1  UNL1        0.0901
     29 C         140.8239  136.3044  155.6966 C.3     1  UNL1        0.0899
     30 N         142.2623  135.8852  155.6249 N.3     1  UNL1       -0.2665
     31 C         143.2935  136.5994  156.4475 C.3     1  UNL1        0.0899
     32 C         142.8863  137.7327  157.3417 C.3     1  UNL1        0.0901
     33 C         142.6696  134.7518  154.7307 C.3     1  UNL1        0.1008
     34 C         142.8282  133.3710  155.2949 C.ar    1  UNL1        0.0130
     35 C         144.0912  132.9940  156.0111 C.ar    1  UNL1        0.0002
     36 C         144.2498  131.6133  156.5754 C.ar    1  UNL1        0.0204
     37 C         143.1454  130.6095  156.4234 C.ar    1  UNL1        0.0989
     38 N         141.8826  130.9866  155.7072 N.ar    1  UNL1       -0.2426
     39 C         141.7240  132.3673  155.1430 C.ar    1  UNL1        0.0959
@<TRIPOS>BOND
     1    11    12    1
     2    12     8    1
     3     8    13    1
     4    13    14    1
     5     8     9   am
     6     9    10    2
     7     9     2    1
     8     2     3   ar
     9     3     4   ar
    10     4     5   ar
    11     5     1    1
    12     1    15    1
    13    15    16   ar
    14    16    17   ar
    15    17    18   ar
    16    18    19   ar
    17    19    21    1
    18    21    22   am
    19    22    23    2
    20    22    25    1
    21    25    26    1
    22    19    20   ar
    23     1    27    1
    24    27    28    1
    25    28    29    1
    26    29    30    1
    27    30    33    1
    28    33    34    1
    29    34    35   ar
    30    35    36   ar
    31    36    37   ar
    32    37    38   ar
    33    38    39   ar
    34    30    31    1
    35    31    32    1
    36     5     6   ar
    37     6     7   ar
    38     7     2   ar
    39    20    15   ar
    40    32    27    1
    41    39    34   ar
    42    21    24    1
@<TRIPOS>MOLECULE
*****
 39 42 0 0 0
SMALL
GASTEIGER

@<TRIPOS>ATOM
      1 C         139.7370  140.2428  158.2897 C.3     1  UNL1        0.1031
      2 C         138.8587  140.1712  162.7026 C.ar    1  UNL1        0.0536
      3 C         140.1311  140.7872  162.2010 C.ar    1  UNL1        0.0042
      4 C         140.4238  140.8110  160.7301 C.ar    1  UNL1       -0.0025
      5 C         139.4442  140.2190  159.7607 C.ar    1  UNL1       -0.0036
      6 C         138.1719  139.6030  160.2623 C.ar    1  UNL1       -0.0025
      7 C         137.8791  139.5791  161.7332 C.ar    1  UNL1        0.0042
      8 N         138.9118  138.9359  164.9876 N.am    1  UNL1       -0.2761
      9 C         138.5659  140.1474  164.1736 C.2     1  UNL1        0.2490
     10 O         137.9272  141.3350  164.8305 O.2     1  UNL1       -0.2699
     11 C         137.4618  138.1126  166.9800 C.3     1  UNL1        0.0233
     12 C         138.6190  138.9120  166.4585 C.3     1  UNL1        0.0938
     13 C         139.5505  137.7482  164.3306 C.3     1  UNL1        0.0938
     14 C         141.0316  137.5371  164.4396 C.3     1  UNL1        0.0233
     15 C         139.1011  141.2824  157.4152 C.ar    1  UNL1       -0.0024
     16 C         139.9317  142.3945  156.8467 C.ar    1  UNL1       -0.0026
     17 C         139.2958  143.4341  155.9722 C.ar    1  UNL1        0.0010
     18 C         137.8291  143.3615  155.6661 C.ar    1  UNL1        0.0147
     19 C         136.9984  142.2494  156.2345 C.ar    1  UNL1        0.0529
     20 C         137.6344  141.2098  157.1091 C.ar    1  UNL1        0.0121
     21 N         135.5318  142.1769  155.9285 N.am    1  UNL1       -0.2499
     22 C         135.0377  141.2789  154.8333 C.2     1  UNL1        0.4055
     23 O         136.0103  140.4533  154.0442 O.2     1  UNL1       -0.2261
     24 H         134.8935  142.7187  156.4464 H       1  UNL1        0.1582
     25 O         133.5711  141.2063  154.5272 O.3     1  UNL1       -0.4304
     26 C         132.5772  141.0815  155.6438 C.3     1  UNL1        0.2574
     27 N         140.6658  139.2271  157.6933 N.3     1  UNL1       -0.2644
     28 C         140.1171  137.9533  157.1219 C.3     1  UNL1        0.0901
     29 C         141.0460  136.9376  156.5255 C.3     1  UNL1        0.0899
     30 N         142.5234  137.1958  156.5004 N.3     1  UNL1       -0.2665
     31 C         143.0720  138.4696  157.0718 C.3     1  UNL1        0.0899
     32 C         142.1432  139.4852  157.6682 C.3     1  UNL1        0.0901
     33 C         143.4522  136.1801  155.9040 C.3     1  UNL1        0.1008
     34 C         143.0536  134.7347  155.8583 C.ar    1  UNL1        0.0130
     35 C         142.5981  134.1228  154.5668 C.ar    1  UNL1        0.0002
     36 C         142.1994  132.6774  154.5211 C.ar    1  UNL1        0.0204
     37 C         142.2563  131.8440  155.7671 C.ar    1  UNL1        0.0989
     38 N         142.7118  132.4560  157.0586 N.ar    1  UNL1       -0.2426
     39 C         143.1105  133.9013  157.1042 C.ar    1  UNL1        0.0959
@<TRIPOS>BOND
     1    11    12    1
     2    12     8    1
     3     8    13    1
     4    13    14    1
     5     8     9   am
     6     9    10    2
     7     9     2    1
     8     2     3   ar
     9     3     4   ar
    10     4     5   ar
    11     5     1    1
    12     1    15    1
    13    15    16   ar
    14    16    17   ar
    15    17    18   ar
    16    18    19   ar
    17    19    21    1
    18    21    22   am
    19    22    23    2
    20    22    25    1
    21    25    26    1
    22    19    20   ar
    23     1    27    1
    24    27    28    1
    25    28    29    1
    26    29    30    1
    27    30    33    1
    28    33    34    1
    29    34    35   ar
    30    35    36   ar
    31    36    37   ar
    32    37    38   ar
    33    38    39   ar
    34    30    31    1
    35    31    32    1
    36     5     6   ar
    37     6     7   ar
    38     7     2   ar
    39    20    15   ar
    40    32    27    1
    41    39    34   ar
    42    21    24    1
@<TRIPOS>MOLECULE
*****
 39 42 0 0 0
SMALL
GASTEIGER

@<TRIPOS>ATOM
      1 C         141.9174  138.8376  158.0484 C.3     1  UNL1        0.1031
      2 C         141.6906  135.8393  154.7004 C.ar    1  UNL1        0.0536
      3 C         143.0219  136.2216  155.2759 C.ar    1  UNL1        0.0042
      4 C         143.0975  137.2211  156.3919 C.ar    1  UNL1       -0.0025
      5 C         141.8418  137.8382  156.9324 C.ar    1  UNL1       -0.0036
      6 C         140.5104  137.4558  156.3569 C.ar    1  UNL1       -0.0025
      7 C         140.4348  136.4564  155.2409 C.ar    1  UNL1        0.0042
      8 N         141.4044  133.3869  153.8919 N.am    1  UNL1       -0.2761
      9 C         141.6150  134.8399  153.5845 C.2     1  UNL1        0.2490
     10 O         141.7500  135.2934  152.1611 O.2     1  UNL1       -0.2699
     11 C         142.5772  131.7172  152.2835 C.3     1  UNL1        0.0233
     12 C         141.3288  132.3875  152.7759 C.3     1  UNL1        0.0938
     13 C         141.2694  132.9333  155.3153 C.3     1  UNL1        0.0938
     14 C         142.4752  132.4527  156.0669 C.3     1  UNL1        0.0233
     15 C         142.2804  140.2632  157.7552 C.ar    1  UNL1       -0.0024
     16 C         141.2060  141.2606  157.4373 C.ar    1  UNL1       -0.0026
     17 C         141.5690  142.6861  157.1441 C.ar    1  UNL1        0.0010
     18 C         143.0063  143.1143  157.1688 C.ar    1  UNL1        0.0147
     19 C         144.0807  142.1170  157.4867 C.ar    1  UNL1        0.0529
     20 C         143.7177  140.6914  157.7799 C.ar    1  UNL1        0.0121
     21 N         145.5181  142.5453  157.5114 N.am    1  UNL1       -0.2499
     22 C         146.4634  142.0606  156.4525 C.2     1  UNL1        0.4055
     23 O         145.9713  141.1477  155.3687 O.2     1  UNL1       -0.2261
     24 H         145.8410  143.1444  158.2227 H       1  UNL1        0.1582
     25 O         147.9007  142.4889  156.4772 O.3     1  UNL1       -0.4304
     26 C         148.9033  141.8015  155.5983 C.3     1  UNL1        0.2574
     27 N         141.6299  138.4115  159.4575 N.3     1  UNL1       -0.2644
     28 C         140.2284  138.4726  159.9885 C.3     1  UNL1        0.0901
     29 C         139.9410  138.0465  161.3977 C.3     1  UNL1        0.0899
     30 N         141.0551  137.5593  162.2759 N.3     1  UNL1       -0.2665
     31 C         142.4567  137.4982  161.7450 C.3     1  UNL1        0.0899
     32 C         142.7441  137.9243  160.3358 C.3     1  UNL1        0.0901
     33 C         140.7677  137.1331  163.6852 C.3     1  UNL1        0.1008
     34 C         140.2428  138.1282  164.6773 C.ar    1  UNL1        0.0130
     35 C         138.8295  138.0231  165.1689 C.ar    1  UNL1        0.0002
     36 C         138.3045  139.0181  166.1610 C.ar    1  UNL1        0.0204
     37 C         139.1929  140.1182  166.6616 C.ar    1  UNL1        0.0989
     38 N         140.6062  140.2233  166.1701 N.ar    1  UNL1       -0.2426
     39 C         141.1311  139.2282  165.1779 C.ar    1  UNL1        0.0959
@<TRIPOS>BOND
     1    11    12    1
     2    12     8    1
     3     8    13    1
     4    13    14    1
     5     8     9   am
     6     9    10    2
     7     9     2    1
     8     2     3   ar
     9     3     4   ar
    10     4     5   ar
    11     5     1    1
    12     1    15    1
    13    15    16   ar
    14    16    17   ar
    15    17    18   ar
    16    18    19   ar
    17    19    21    1
    18    21    22   am
    19    22    23    2
    20    22    25    1
    21    25    26    1
    22    19    20   ar
    23     1    27    1
    24    27    28    1
    25    28    29    1
    26    29    30    1
    27    30    33    1
    28    33    34    1
    29    34    35   ar
    30    35    36   ar
    31    36    37   ar
    32    37    38   ar
    33    38    39   ar
    34    30    31    1
    35    31    32    1
    36     5     6   ar
    37     6     7   ar
    38     7     2   ar
    39    20    15   ar
    40    32    27    1
    41    39    34   ar
    42    21    24    1
@<TRIPOS>MOLECULE
*****
 39 42 0 0 0
SMALL
GASTEIGER

@<TRIPOS>ATOM
      1 C         138.7233  140.3033  156.8508 C.3     1  UNL1        0.1031
      2 C         138.8502  142.5883  160.7254 C.ar    1  UNL1        0.0536
      3 C         138.3493  141.1747  160.7045 C.ar    1  UNL1        0.0042
      4 C         138.3070  140.4130  159.4130 C.ar    1  UNL1       -0.0025
      5 C         138.7656  141.0650  158.1424 C.ar    1  UNL1       -0.0036
      6 C         139.2666  142.4786  158.1633 C.ar    1  UNL1       -0.0025
      7 C         139.3089  143.2403  159.4548 C.ar    1  UNL1        0.0042
      8 N         140.1018  143.2623  162.9002 N.am    1  UNL1       -0.2761
      9 C         138.8926  143.3500  162.0170 C.2     1  UNL1        0.2490
     10 O         137.7256  144.1994  162.4253 O.2     1  UNL1       -0.2699
     11 C         139.9535  143.3038  165.4937 C.3     1  UNL1        0.0233
     12 C         140.1441  144.0240  164.1917 C.3     1  UNL1        0.0938
     13 C         141.2688  142.4129  162.4918 C.3     1  UNL1        0.0938
     14 C         142.6619  142.8207  162.8697 C.3     1  UNL1        0.0233
     15 C         137.5788  140.4996  155.9015 C.ar    1  UNL1       -0.0024
     16 C         137.8185  140.4687  154.4210 C.ar    1  UNL1       -0.0026
     17 C         136.6739  140.6650  153.4717 C.ar    1  UNL1        0.0010
     18 C         135.2896  140.8923  154.0026 C.ar    1  UNL1        0.0147
     19 C         135.0498  140.9233  155.4830 C.ar    1  UNL1        0.0529
     20 C         136.1944  140.7269  156.4325 C.ar    1  UNL1        0.0121
     21 N         133.6655  141.1506  156.0140 N.am    1  UNL1       -0.2499
     22 C         132.9435  140.0441  156.7241 C.2     1  UNL1        0.4055
     23 O         133.6059  138.7101  156.9033 O.2     1  UNL1       -0.2261
     24 H         133.2308  142.0260  155.8964 H       1  UNL1        0.1582
     25 O         131.5592  140.2713  157.2551 O.3     1  UNL1       -0.4304
     26 C         130.3876  140.2735  156.3183 C.3     1  UNL1        0.2574
     27 N         139.8256  139.3452  156.5087 N.3     1  UNL1       -0.2644
     28 C         141.2090  139.8588  156.2395 C.3     1  UNL1        0.0901
     29 C         142.3113  138.9007  155.8973 C.3     1  UNL1        0.0899
     30 N         142.0302  137.4291  155.8243 N.3     1  UNL1       -0.2665
     31 C         140.6468  136.9155  156.0936 C.3     1  UNL1        0.0899
     32 C         139.5445  137.8736  156.4357 C.3     1  UNL1        0.0901
     33 C         143.1325  136.4710  155.4822 C.3     1  UNL1        0.1008
     34 C         142.9219  134.9952  155.6485 C.ar    1  UNL1        0.0130
     35 C         142.5691  134.1494  154.4609 C.ar    1  UNL1        0.0002
     36 C         142.3586  132.6735  154.6273 C.ar    1  UNL1        0.0204
     37 C         142.5008  132.0435  155.9812 C.ar    1  UNL1        0.0989
     38 N         142.8536  132.8893  157.1686 N.ar    1  UNL1       -0.2426
     39 C         143.0642  134.3652  157.0023 C.ar    1  UNL1        0.0959
@<TRIPOS>BOND
     1    11    12    1
     2    12     8    1
     3     8    13    1
     4    13    14    1
     5     8     9   am
     6     9    10    2
     7     9     2    1
     8     2     3   ar
     9     3     4   ar
    10     4     5   ar
    11     5     1    1
    12     1    15    1
    13    15    16   ar
    14    16    17   ar
    15    17    18   ar
    16    18    19   ar
    17    19    21    1
    18    21    22   am
    19    22    23    2
    20    22    25    1
    21    25    26    1
    22    19    20   ar
    23     1    27    1
    24    27    28    1
    25    28    29    1
    26    29    30    1
    27    30    33    1
    28    33    34    1
    29    34    35   ar
    30    35    36   ar
    31    36    37   ar
    32    37    38   ar
    33    38    39   ar
    34    30    31    1
    35    31    32    1
    36     5     6   ar
    37     6     7   ar
    38     7     2   ar
    39    20    15   ar
    40    32    27    1
    41    39    34   ar
    42    21    24    1
@<TRIPOS>MOLECULE
*****
 39 42 0 0 0
SMALL
GASTEIGER

@<TRIPOS>ATOM
      1 C         140.3808  139.2429  157.9087 C.3     1  UNL1        0.1031
      2 C         139.9291  143.6582  157.1666 C.ar    1  UNL1        0.0536
      3 C         138.7986  142.8798  157.7715 C.ar    1  UNL1        0.0042
      4 C         138.9491  141.4081  158.0188 C.ar    1  UNL1       -0.0025
      5 C         140.2303  140.7147  157.6613 C.ar    1  UNL1       -0.0036
      6 C         141.3608  141.4930  157.0565 C.ar    1  UNL1       -0.0025
      7 C         141.2103  142.9648  156.8091 C.ar    1  UNL1        0.0042
      8 N         139.1202  145.6157  155.6621 N.am    1  UNL1       -0.2761
      9 C         139.7786  145.1300  156.9193 C.2     1  UNL1        0.2490
     10 O         140.2864  146.1161  157.9291 O.2     1  UNL1       -0.2699
     11 C         139.9782  147.8140  154.5751 C.3     1  UNL1        0.0233
     12 C         138.9696  147.0875  155.4148 C.3     1  UNL1        0.0938
     13 C         138.6123  144.6297  154.6522 C.3     1  UNL1        0.0938
     14 C         137.1363  144.4624  154.4438 C.3     1  UNL1        0.0233
     15 C         140.4121  138.2874  156.7528 C.ar    1  UNL1       -0.0024
     16 C         139.7478  138.6538  155.4587 C.ar    1  UNL1       -0.0026
     17 C         139.7791  137.6983  154.3028 C.ar    1  UNL1        0.0010
     18 C         140.4747  136.3765  154.4410 C.ar    1  UNL1        0.0147
     19 C         141.1389  136.0102  155.7350 C.ar    1  UNL1        0.0529
     20 C         141.1077  136.9656  156.8909 C.ar    1  UNL1        0.0121
     21 N         141.8345  134.6884  155.8731 N.am    1  UNL1       -0.2499
     22 C         143.3290  134.6130  155.7703 C.2     1  UNL1        0.4055
     23 O         144.1281  135.8594  155.5293 O.2     1  UNL1       -0.2261
     24 H         141.3101  133.8703  156.0312 H       1  UNL1        0.1582
     25 O         144.0246  133.2912  155.9084 O.3     1  UNL1       -0.4304
     26 C         143.3380  132.1511  156.6005 C.3     1  UNL1        0.2574
     27 N         140.5001  138.7265  159.3119 N.3     1  UNL1       -0.2644
     28 C         139.2651  138.4546  160.1186 C.3     1  UNL1        0.0901
     29 C         139.3844  137.9382  161.5219 C.3     1  UNL1        0.0899
     30 N         140.7387  137.6938  162.1185 N.3     1  UNL1       -0.2665
     31 C         141.9738  137.9657  161.3118 C.3     1  UNL1        0.0899
     32 C         141.8545  138.4821  159.9086 C.3     1  UNL1        0.0901
     33 C         140.8581  137.1774  163.5218 C.3     1  UNL1        0.1008
     34 C         140.2561  137.9490  164.6586 C.ar    1  UNL1        0.0130
     35 C         138.8527  137.6590  165.1018 C.ar    1  UNL1        0.0002
     36 C         138.2507  138.4306  166.2386 C.ar    1  UNL1        0.0204
     37 C         139.0521  139.4922  166.9321 C.ar    1  UNL1        0.0989
     38 N         140.4554  139.7821  166.4888 N.ar    1  UNL1       -0.2426
     39 C         141.0574  139.0105  165.3520 C.ar    1  UNL1        0.0959
@<TRIPOS>BOND
     1    11    12    1
     2    12     8    1
     3     8    13    1
     4    13    14    1
     5     8     9   am
     6     9    10    2
     7     9     2    1
     8     2     3   ar
     9     3     4   ar
    10     4     5   ar
    11     5     1    1
    12     1    15    1
    13    15    16   ar
    14    16    17   ar
    15    17    18   ar
    16    18    19   ar
    17    19    21    1
    18    21    22   am
    19    22    23    2
    20    22    25    1
    21    25    26    1
    22    19    20   ar
    23     1    27    1
    24    27    28    1
    25    28    29    1
    26    29    30    1
    27    30    33    1
    28    33    34    1
    29    34    35   ar
    30    35    36   ar
    31    36    37   ar
    32    37    38   ar
    33    38    39   ar
    34    30    31    1
    35    31    32    1
    36     5     6   ar
    37     6     7   ar
    38     7     2   ar
    39    20    15   ar
    40    32    27    1
    41    39    34   ar
    42    21    24    1
