@<TRIPOS>MOLECULE
*****
 40 44 0 0 0
SMALL
GASTEIGER

@<TRIPOS>ATOM
      1 C         142.2557  138.4725  164.2384 C.3     1  UNL1        0.1485
      2 F         141.8153  137.7562  165.4805 F       1  UNL1       -0.2386
      3 C         142.2476  138.9837  162.8282 C.3     1  UNL1        0.0354
      4 C         143.3777  139.8367  162.3331 C.3     1  UNL1        0.0185
      5 C         144.5159  140.1786  163.2483 C.3     1  UNL1        0.0544
      6 C         144.5240  139.6675  164.6585 C.3     1  UNL1        0.0185
      7 C         143.3939  138.8145  165.1536 C.3     1  UNL1        0.0354
      8 C         140.9645  137.8818  163.7546 C.3     1  UNL1        0.1041
      9 N         140.9755  136.8248  162.6903 N.3     1  UNL1       -0.3185
     10 H         141.9379  136.6313  162.4133 H       1  UNL1        0.1189
     11 H         140.4479  137.1518  161.8809 H       1  UNL1        0.1189
     12 C         139.6623  138.3482  164.3350 C.3     1  UNL1        0.1272
     13 C         139.8129  142.5189  166.0178 C.ar    1  UNL1        0.1403
     14 C         139.0481  143.6243  165.3522 C.ar    1  UNL1        0.0385
     15 C         138.2330  143.3394  164.1256 C.ar    1  UNL1        0.0237
     16 C         138.1828  141.9492  163.5646 C.ar    1  UNL1        0.0975
     17 N         137.3678  141.6643  162.3380 N.ar    1  UNL1       -0.2374
     18 C         137.3176  140.2741  161.7771 C.ar    1  UNL1        0.1594
     19 C         138.0824  139.1686  162.4428 C.ar    1  UNL1        0.2803
     20 O         138.0322  137.7784  161.8818 O.2     1  UNL1       -0.2653
     21 N         138.8975  139.4535  163.6694 N.ar    1  UNL1       -0.2913
     22 C         138.9477  140.8438  164.2303 C.ar    1  UNL1        0.0832
     23 C         139.7627  141.1287  165.4569 C.ar    1  UNL1        0.0557
     24 C         141.8509  141.9867  167.5387 C.3     1  UNL1        0.2525
     25 O         140.6279  142.8038  167.2444 O.3     1  UNL1       -0.4714
     26 N         145.6460  141.0317  162.7533 N.3     1  UNL1       -0.2935
     27 H         145.6715  140.9270  161.7390 H       1  UNL1        0.1236
     28 C         145.6540  142.5046  163.0369 C.3     1  UNL1        0.1152
     29 C         144.3713  143.2814  163.0058 C.ar    1  UNL1        0.0765
     30 C         143.7161  143.6992  164.2888 C.ar    1  UNL1        0.0193
     31 C         142.4334  144.4760  164.2577 C.ar    1  UNL1        0.0411
     32 C         141.8057  144.8351  162.9436 C.ar    1  UNL1        0.1708
     33 C         142.4609  144.4173  161.6604 C.ar    1  UNL1        0.1682
     34 N         143.7436  143.6405  161.6916 N.ar    1  UNL1       -0.2304
     35 N         141.8332  144.7764  160.3463 N.am    1  UNL1       -0.2639
     36 C         140.5504  145.5532  160.3152 C.2     1  UNL1        0.2718
     37 O         139.9227  145.9123  159.0009 O.2     1  UNL1       -0.2707
     38 C         139.8953  145.9710  161.5982 C.3     1  UNL1        0.2898
     39 O         140.5229  145.6119  162.9124 O.3     1  UNL1       -0.4628
     40 H         142.2631  144.5022  159.5042 H       1  UNL1        0.1565
@<TRIPOS>BOND
     1    24    25    1
     2    25    13    1
     3    13    14   ar
     4    14    15   ar
     5    15    16   ar
     6    16    17   ar
     7    17    18   ar
     8    18    19   ar
     9    19    20    2
    10    19    21   ar
    11    21    12    1
    12    12     8    1
    13     8     9    1
    14     8     1    1
    15     1     2    1
    16     1     3    1
    17     3     4    1
    18     4     5    1
    19     5    26    1
    20    26    28    1
    21    28    29    1
    22    29    30   ar
    23    30    31   ar
    24    31    32   ar
    25    32    33   ar
    26    33    34   ar
    27    33    35    1
    28    35    36   am
    29    36    37    2
    30    36    38    1
    31    38    39    1
    32     5     6    1
    33     6     7    1
    34    21    22   ar
    35    22    23   ar
    36    23    13   ar
    37    22    16   ar
    38     7     1    1
    39    34    29   ar
    40    39    32    1
    41     9    10    1
    42     9    11    1
    43    26    27    1
    44    35    40    1
@<TRIPOS>MOLECULE
*****
 40 44 0 0 0
SMALL
GASTEIGER

@<TRIPOS>ATOM
      1 C         137.9611  142.4488  163.3336 C.3     1  UNL1        0.1485
      2 F         137.5952  142.6076  164.7796 F       1  UNL1       -0.2386
      3 C         138.3822  142.8055  161.9388 C.3     1  UNL1        0.0354
      4 C         138.5172  141.7331  160.8988 C.3     1  UNL1        0.0185
      5 C         138.2311  140.3040  161.2535 C.3     1  UNL1        0.0544
      6 C         137.8100  139.9473  162.6483 C.3     1  UNL1        0.0185
      7 C         137.6750  141.0197  163.6883 C.3     1  UNL1        0.0354
      8 C         138.1201  143.9331  163.4811 C.3     1  UNL1        0.1041
      9 N         137.3595  144.8618  162.5818 N.3     1  UNL1       -0.3185
     10 H         136.7878  144.3174  161.9360 H       1  UNL1        0.1189
     11 H         138.0157  145.4367  162.0533 H       1  UNL1        0.1189
     12 C         139.0398  144.4885  164.5278 C.3     1  UNL1        0.1272
     13 C         141.2809  141.8114  167.3669 C.ar    1  UNL1        0.1403
     14 C         142.7649  141.6442  167.2265 C.ar    1  UNL1        0.0385
     15 C         143.5019  142.3693  166.1398 C.ar    1  UNL1        0.0237
     16 C         142.7549  143.2616  165.1934 C.ar    1  UNL1        0.0975
     17 N         143.4919  143.9867  164.1066 N.ar    1  UNL1       -0.2374
     18 C         142.7449  144.8791  163.1603 C.ar    1  UNL1        0.1594
     19 C         141.2608  145.0464  163.3006 C.ar    1  UNL1        0.2803
     20 O         140.5138  145.9387  162.3543 O.2     1  UNL1       -0.2653
     21 N         140.5238  144.3213  164.3874 N.ar    1  UNL1       -0.2913
     22 C         141.2709  143.4289  165.3338 C.ar    1  UNL1        0.0832
     23 C         140.5339  142.7038  166.4206 C.ar    1  UNL1        0.0557
     24 C         139.9821  141.8490  169.6167 C.3     1  UNL1        0.2525
     25 O         140.5440  141.0863  168.4537 O.3     1  UNL1       -0.4714
     26 N         138.3661  139.2316  160.2134 N.3     1  UNL1       -0.2935
     27 H         138.1686  139.6682  159.3130 H       1  UNL1        0.1236
     28 C         139.6629  138.4932  160.0614 C.3     1  UNL1        0.1152
     29 C         140.6973  138.5630  161.1453 C.ar    1  UNL1        0.0765
     30 C         140.6153  137.6355  162.3213 C.ar    1  UNL1        0.0193
     31 C         141.6498  137.7053  163.4052 C.ar    1  UNL1        0.0411
     32 C         142.7664  138.7027  163.3132 C.ar    1  UNL1        0.1708
     33 C         142.8484  139.6303  162.1372 C.ar    1  UNL1        0.1682
     34 N         141.8140  139.5604  161.0533 N.ar    1  UNL1       -0.2304
     35 N         143.9650  140.6276  162.0452 N.am    1  UNL1       -0.2639
     36 C         144.9995  140.6974  163.1291 C.2     1  UNL1        0.2718
     37 O         146.1161  141.6948  163.0371 O.2     1  UNL1       -0.2707
     38 C         144.9174  139.7699  164.3051 C.3     1  UNL1        0.2898
     39 O         143.8008  138.7725  164.3971 O.3     1  UNL1       -0.4628
     40 H         144.0189  141.2364  161.2734 H       1  UNL1        0.1565
@<TRIPOS>BOND
     1    24    25    1
     2    25    13    1
     3    13    14   ar
     4    14    15   ar
     5    15    16   ar
     6    16    17   ar
     7    17    18   ar
     8    18    19   ar
     9    19    20    2
    10    19    21   ar
    11    21    12    1
    12    12     8    1
    13     8     9    1
    14     8     1    1
    15     1     2    1
    16     1     3    1
    17     3     4    1
    18     4     5    1
    19     5    26    1
    20    26    28    1
    21    28    29    1
    22    29    30   ar
    23    30    31   ar
    24    31    32   ar
    25    32    33   ar
    26    33    34   ar
    27    33    35    1
    28    35    36   am
    29    36    37    2
    30    36    38    1
    31    38    39    1
    32     5     6    1
    33     6     7    1
    34    21    22   ar
    35    22    23   ar
    36    23    13   ar
    37    22    16   ar
    38     7     1    1
    39    34    29   ar
    40    39    32    1
    41     9    10    1
    42     9    11    1
    43    26    27    1
    44    35    40    1
@<TRIPOS>MOLECULE
*****
 40 44 0 0 0
SMALL
GASTEIGER

@<TRIPOS>ATOM
      1 C         139.2518  143.2577  163.5973 C.3     1  UNL1        0.1485
      2 F         138.3664  142.9768  164.7750 F       1  UNL1       -0.2386
      3 C         139.7521  143.2792  162.1833 C.3     1  UNL1        0.0354
      4 C         141.0539  143.9498  161.8584 C.3     1  UNL1        0.0185
      5 C         141.8556  144.5987  162.9476 C.3     1  UNL1        0.0544
      6 C         141.3553  144.5771  164.3616 C.3     1  UNL1        0.0185
      7 C         140.0535  143.9066  164.6864 C.3     1  UNL1        0.0354
      8 C         138.1427  142.5112  162.9171 C.3     1  UNL1        0.1041
      9 N         137.4036  143.1429  161.7749 N.3     1  UNL1       -0.3185
     10 H         137.7837  144.0725  161.5967 H       1  UNL1        0.1189
     11 H         136.4143  143.2195  162.0109 H       1  UNL1        0.1189
     12 C         137.7726  141.1329  163.3792 C.3     1  UNL1        0.1272
     13 C         141.0653  139.4411  165.9376 C.ar    1  UNL1        0.1403
     14 C         141.8502  138.2546  165.4620 C.ar    1  UNL1        0.0385
     15 C         141.5374  137.6320  164.1337 C.ar    1  UNL1        0.0237
     16 C         140.4399  138.1960  163.2809 C.ar    1  UNL1        0.0975
     17 N         140.1272  137.5734  161.9525 N.ar    1  UNL1       -0.2374
     18 C         139.0296  138.1373  161.0997 C.ar    1  UNL1        0.1594
     19 C         138.2447  139.3239  161.5752 C.ar    1  UNL1        0.2803
     20 O         137.1472  139.8878  160.7224 O.2     1  UNL1       -0.2653
     21 N         138.5574  139.9465  162.9036 N.ar    1  UNL1       -0.2913
     22 C         139.6551  139.3825  163.7564 C.ar    1  UNL1        0.0832
     23 C         139.9678  140.0050  165.0848 C.ar    1  UNL1        0.0557
     24 C         142.5252  139.5491  168.0840 C.3     1  UNL1        0.2525
     25 O         141.3780  140.0637  167.2660 O.3     1  UNL1       -0.4714
     26 N         143.1574  145.2692  162.6227 N.3     1  UNL1       -0.2935
     27 H         143.2612  146.0439  163.2781 H       1  UNL1        0.1236
     28 C         144.4365  144.4871  162.6708 C.3     1  UNL1        0.1152
     29 C         144.4012  142.9882  162.6266 C.ar    1  UNL1        0.0765
     30 C         144.7682  142.1931  163.8445 C.ar    1  UNL1        0.0193
     31 C         144.7329  140.6943  163.8002 C.ar    1  UNL1        0.0411
     32 C         144.3307  139.9903  162.5382 C.ar    1  UNL1        0.1708
     33 C         143.9638  140.7855  161.3203 C.ar    1  UNL1        0.1682
     34 N         143.9990  142.2843  161.3645 N.ar    1  UNL1       -0.2304
     35 N         143.5616  140.0815  160.0583 N.am    1  UNL1       -0.2639
     36 C         143.5263  138.5826  160.0141 C.2     1  UNL1        0.2718
     37 O         143.1242  137.8788  158.7520 O.2     1  UNL1       -0.2707
     38 C         143.8933  137.7876  161.2319 C.3     1  UNL1        0.2898
     39 O         144.2955  138.4914  162.4940 O.3     1  UNL1       -0.4628
     40 H         143.3207  140.6033  159.2589 H       1  UNL1        0.1565
@<TRIPOS>BOND
     1    24    25    1
     2    25    13    1
     3    13    14   ar
     4    14    15   ar
     5    15    16   ar
     6    16    17   ar
     7    17    18   ar
     8    18    19   ar
     9    19    20    2
    10    19    21   ar
    11    21    12    1
    12    12     8    1
    13     8     9    1
    14     8     1    1
    15     1     2    1
    16     1     3    1
    17     3     4    1
    18     4     5    1
    19     5    26    1
    20    26    28    1
    21    28    29    1
    22    29    30   ar
    23    30    31   ar
    24    31    32   ar
    25    32    33   ar
    26    33    34   ar
    27    33    35    1
    28    35    36   am
    29    36    37    2
    30    36    38    1
    31    38    39    1
    32     5     6    1
    33     6     7    1
    34    21    22   ar
    35    22    23   ar
    36    23    13   ar
    37    22    16   ar
    38     7     1    1
    39    34    29   ar
    40    39    32    1
    41     9    10    1
    42     9    11    1
    43    26    27    1
    44    35    40    1
@<TRIPOS>MOLECULE
*****
 40 44 0 0 0
SMALL
GASTEIGER

@<TRIPOS>ATOM
      1 C         138.2069  140.2006  163.3691 C.3     1  UNL1        0.1485
      2 F         138.3140  139.2356  164.5123 F       1  UNL1       -0.2386
      3 C         138.1515  140.7192  161.9626 C.3     1  UNL1        0.0354
      4 C         137.9843  142.1884  161.7109 C.3     1  UNL1        0.0185
      5 C         137.8725  143.1392  162.8657 C.3     1  UNL1        0.0544
      6 C         137.9280  142.6206  164.2722 C.3     1  UNL1        0.0185
      7 C         138.0951  141.1514  164.5238 C.3     1  UNL1        0.0354
      8 C         138.3559  138.9147  162.6112 C.3     1  UNL1        0.1041
      9 N         137.3061  138.5005  161.6231 N.3     1  UNL1       -0.3185
     10 H         136.5693  139.2053  161.5944 H       1  UNL1        0.1189
     11 H         136.9086  137.6044  161.9049 H       1  UNL1        0.1189
     12 C         139.5546  138.0430  162.8416 C.3     1  UNL1        0.1272
     13 C         143.0606  138.8824  165.5348 C.ar    1  UNL1        0.1403
     14 C         144.3868  139.2594  164.9440 C.ar    1  UNL1        0.0385
     15 C         144.5443  139.3567  163.4555 C.ar    1  UNL1        0.0237
     16 C         143.3757  139.0769  162.5578 C.ar    1  UNL1        0.0975
     17 N         143.5332  139.1741  161.0692 N.ar    1  UNL1       -0.2374
     18 C         142.3646  138.8943  160.1715 C.ar    1  UNL1        0.1594
     19 C         141.0383  138.5172  160.7623 C.ar    1  UNL1        0.2803
     20 O         139.8697  138.2374  159.8645 O.2     1  UNL1       -0.2653
     21 N         140.8808  138.4200  162.2508 N.ar    1  UNL1       -0.2913
     22 C         142.0495  138.6998  163.1486 C.ar    1  UNL1        0.0832
     23 C         141.8920  138.6026  164.6371 C.ar    1  UNL1        0.0557
     24 C         142.0080  139.7468  167.7472 C.3     1  UNL1        0.2525
     25 O         142.9031  138.7851  167.0234 O.3     1  UNL1       -0.4714
     26 N         137.7054  144.6084  162.6141 N.3     1  UNL1       -0.2935
     27 H         137.0908  144.9644  163.3462 H       1  UNL1        0.1236
     28 C         138.9070  145.5056  162.5832 C.3     1  UNL1        0.1152
     29 C         140.2848  144.9133  162.5564 C.ar    1  UNL1        0.0765
     30 C         141.1125  144.8825  163.8070 C.ar    1  UNL1        0.0193
     31 C         142.4903  144.2902  163.7802 C.ar    1  UNL1        0.0411
     32 C         143.0406  143.7287  162.5027 C.ar    1  UNL1        0.1708
     33 C         142.2129  143.7595  161.2520 C.ar    1  UNL1        0.1682
     34 N         140.8351  144.3518  161.2789 N.ar    1  UNL1       -0.2304
     35 N         142.7632  143.1980  159.9746 N.am    1  UNL1       -0.2639
     36 C         144.1410  142.6057  159.9477 C.2     1  UNL1        0.2718
     37 O         144.6913  142.0442  158.6702 O.2     1  UNL1       -0.2707
     38 C         144.9686  142.5749  161.1984 C.3     1  UNL1        0.2898
     39 O         144.4184  143.1364  162.4759 O.3     1  UNL1       -0.4628
     40 H         142.2200  143.2182  159.1537 H       1  UNL1        0.1565
@<TRIPOS>BOND
     1    24    25    1
     2    25    13    1
     3    13    14   ar
     4    14    15   ar
     5    15    16   ar
     6    16    17   ar
     7    17    18   ar
     8    18    19   ar
     9    19    20    2
    10    19    21   ar
    11    21    12    1
    12    12     8    1
    13     8     9    1
    14     8     1    1
    15     1     2    1
    16     1     3    1
    17     3     4    1
    18     4     5    1
    19     5    26    1
    20    26    28    1
    21    28    29    1
    22    29    30   ar
    23    30    31   ar
    24    31    32   ar
    25    32    33   ar
    26    33    34   ar
    27    33    35    1
    28    35    36   am
    29    36    37    2
    30    36    38    1
    31    38    39    1
    32     5     6    1
    33     6     7    1
    34    21    22   ar
    35    22    23   ar
    36    23    13   ar
    37    22    16   ar
    38     7     1    1
    39    34    29   ar
    40    39    32    1
    41     9    10    1
    42     9    11    1
    43    26    27    1
    44    35    40    1
@<TRIPOS>MOLECULE
*****
 40 44 0 0 0
SMALL
GASTEIGER

@<TRIPOS>ATOM
      1 C         139.1809  138.4019  163.3713 C.3     1  UNL1        0.1485
      2 F         137.7908  138.9018  163.1111 F       1  UNL1       -0.2386
      3 C         140.3847  137.9084  164.1180 C.3     1  UNL1        0.0354
      4 C         141.6422  137.5700  163.3737 C.3     1  UNL1        0.0185
      5 C         141.6960  137.7250  161.8827 C.3     1  UNL1        0.0544
      6 C         140.4923  138.2185  161.1360 C.3     1  UNL1        0.0185
      7 C         139.2347  138.5569  161.8803 C.3     1  UNL1        0.0354
      8 C         138.6443  138.4205  164.7720 C.3     1  UNL1        0.1041
      9 N         138.6958  137.1784  165.6114 N.3     1  UNL1       -0.3185
     10 H         139.1237  136.4234  165.0755 H       1  UNL1        0.1189
     11 H         137.7491  136.9104  165.8803 H       1  UNL1        0.1189
     12 C         138.0563  139.6812  165.3332 C.3     1  UNL1        0.1272
     13 C         138.7863  143.3297  162.8023 C.ar    1  UNL1        0.1403
     14 C         139.6872  144.4203  163.3010 C.ar    1  UNL1        0.0385
     15 C         140.3449  144.2948  164.6432 C.ar    1  UNL1        0.0237
     16 C         140.1016  143.0787  165.4868 C.ar    1  UNL1        0.0975
     17 N         140.7593  142.9531  166.8291 N.ar    1  UNL1       -0.2374
     18 C         140.5160  141.7370  167.6727 C.ar    1  UNL1        0.1594
     19 C         139.6150  140.6463  167.1741 C.ar    1  UNL1        0.2803
     20 O         139.3717  139.4301  168.0177 O.2     1  UNL1       -0.2653
     21 N         138.9573  140.7718  165.8318 N.ar    1  UNL1       -0.2913
     22 C         139.2007  141.9880  164.9882 C.ar    1  UNL1        0.0832
     23 C         138.5430  142.1135  163.6459 C.ar    1  UNL1        0.0557
     24 C         138.4375  142.4636  160.3778 C.3     1  UNL1        0.2525
     25 O         138.1286  143.4552  161.4600 O.3     1  UNL1       -0.4714
     26 N         142.9536  137.3866  161.1384 N.3     1  UNL1       -0.2935
     27 H         142.6972  137.2900  160.1559 H       1  UNL1        0.1236
     28 C         144.1290  138.3169  161.1898 C.3     1  UNL1        0.1152
     29 C         143.9299  139.7575  161.5572 C.ar    1  UNL1        0.0765
     30 C         143.1721  140.6683  160.6373 C.ar    1  UNL1        0.0193
     31 C         142.9730  142.1089  161.0047 C.ar    1  UNL1        0.0411
     32 C         143.5317  142.6388  162.2920 C.ar    1  UNL1        0.1708
     33 C         144.2895  141.7279  163.2120 C.ar    1  UNL1        0.1682
     34 N         144.4886  140.2873  162.8445 N.ar    1  UNL1       -0.2304
     35 N         144.8482  142.2578  164.4992 N.am    1  UNL1       -0.2639
     36 C         144.6491  143.6984  164.8666 C.2     1  UNL1        0.2718
     37 O         145.2078  144.2282  166.1540 O.2     1  UNL1       -0.2707
     38 C         143.8913  144.6092  163.9468 C.3     1  UNL1        0.2898
     39 O         143.3326  144.0793  162.6594 O.3     1  UNL1       -0.4628
     40 H         145.3455  141.6600  165.1030 H       1  UNL1        0.1565
@<TRIPOS>BOND
     1    24    25    1
     2    25    13    1
     3    13    14   ar
     4    14    15   ar
     5    15    16   ar
     6    16    17   ar
     7    17    18   ar
     8    18    19   ar
     9    19    20    2
    10    19    21   ar
    11    21    12    1
    12    12     8    1
    13     8     9    1
    14     8     1    1
    15     1     2    1
    16     1     3    1
    17     3     4    1
    18     4     5    1
    19     5    26    1
    20    26    28    1
    21    28    29    1
    22    29    30   ar
    23    30    31   ar
    24    31    32   ar
    25    32    33   ar
    26    33    34   ar
    27    33    35    1
    28    35    36   am
    29    36    37    2
    30    36    38    1
    31    38    39    1
    32     5     6    1
    33     6     7    1
    34    21    22   ar
    35    22    23   ar
    36    23    13   ar
    37    22    16   ar
    38     7     1    1
    39    34    29   ar
    40    39    32    1
    41     9    10    1
    42     9    11    1
    43    26    27    1
    44    35    40    1
@<TRIPOS>MOLECULE
*****
 40 44 0 0 0
SMALL
GASTEIGER

@<TRIPOS>ATOM
      1 C         143.4189  142.1845  164.1201 C.3     1  UNL1        0.1485
      2 F         143.6479  141.3860  165.3691 F       1  UNL1       -0.2386
      3 C         143.4878  142.6004  162.6806 C.3     1  UNL1        0.0354
      4 C         142.7785  143.8405  162.2234 C.3     1  UNL1        0.0185
      5 C         142.0003  144.6647  163.2058 C.3     1  UNL1        0.0544
      6 C         141.9314  144.2488  164.6454 C.3     1  UNL1        0.0185
      7 C         142.6407  143.0087  165.1025 C.3     1  UNL1        0.0354
      8 C         144.2767  141.0829  163.5715 C.3     1  UNL1        0.1041
      9 N         145.5205  141.4138  162.8013 N.3     1  UNL1       -0.3185
     10 H         145.6279  142.4267  162.7477 H       1  UNL1        0.1189
     11 H         145.4495  141.0292  161.8592 H       1  UNL1        0.1189
     12 C         143.8905  139.6505  163.7931 C.3     1  UNL1        0.1272
     13 C         139.8292  139.0522  165.6365 C.ar    1  UNL1        0.1403
     14 C         138.7223  138.4405  164.8300 C.ar    1  UNL1        0.0385
     15 C         138.9691  138.0282  163.4091 C.ar    1  UNL1        0.0237
     16 C         140.3228  138.2276  162.7946 C.ar    1  UNL1        0.0975
     17 N         140.5696  137.8153  161.3736 N.ar    1  UNL1       -0.2374
     18 C         141.9233  138.0148  160.7591 C.ar    1  UNL1        0.1594
     19 C         143.0303  138.6265  161.5656 C.ar    1  UNL1        0.2803
     20 O         144.3840  138.8259  160.9511 O.2     1  UNL1       -0.2653
     21 N         142.7835  139.0388  162.9866 N.ar    1  UNL1       -0.2913
     22 C         141.4297  138.8394  163.6011 C.ar    1  UNL1        0.0832
     23 C         141.1830  139.2516  165.0220 C.ar    1  UNL1        0.0557
     24 C         140.2447  140.6927  167.6078 C.3     1  UNL1        0.2525
     25 O         139.5825  139.4645  167.0574 O.3     1  UNL1       -0.4714
     26 N         141.2910  145.9048  162.7486 N.3     1  UNL1       -0.2935
     27 H         141.8027  146.2550  161.9388 H       1  UNL1        0.1236
     28 C         139.8458  145.8394  162.3526 C.3     1  UNL1        0.1152
     29 C         139.1751  144.5090  162.1790 C.ar    1  UNL1        0.0765
     30 C         138.3190  143.9517  163.2774 C.ar    1  UNL1        0.0193
     31 C         137.6483  142.6213  163.1038 C.ar    1  UNL1        0.0411
     32 C         137.8336  141.8481  161.8318 C.ar    1  UNL1        0.1708
     33 C         138.6897  142.4055  160.7334 C.ar    1  UNL1        0.1682
     34 N         139.3604  143.7359  160.9070 N.ar    1  UNL1       -0.2304
     35 N         138.8751  141.6324  159.4614 N.am    1  UNL1       -0.2639
     36 C         138.2044  140.3020  159.2878 C.2     1  UNL1        0.2718
     37 O         138.3898  139.5289  158.0158 O.2     1  UNL1       -0.2707
     38 C         137.3483  139.7447  160.3862 C.3     1  UNL1        0.2898
     39 O         137.1629  140.5178  161.6582 O.3     1  UNL1       -0.4628
     40 H         139.4370  141.9982  158.7405 H       1  UNL1        0.1565
@<TRIPOS>BOND
     1    24    25    1
     2    25    13    1
     3    13    14   ar
     4    14    15   ar
     5    15    16   ar
     6    16    17   ar
     7    17    18   ar
     8    18    19   ar
     9    19    20    2
    10    19    21   ar
    11    21    12    1
    12    12     8    1
    13     8     9    1
    14     8     1    1
    15     1     2    1
    16     1     3    1
    17     3     4    1
    18     4     5    1
    19     5    26    1
    20    26    28    1
    21    28    29    1
    22    29    30   ar
    23    30    31   ar
    24    31    32   ar
    25    32    33   ar
    26    33    34   ar
    27    33    35    1
    28    35    36   am
    29    36    37    2
    30    36    38    1
    31    38    39    1
    32     5     6    1
    33     6     7    1
    34    21    22   ar
    35    22    23   ar
    36    23    13   ar
    37    22    16   ar
    38     7     1    1
    39    34    29   ar
    40    39    32    1
    41     9    10    1
    42     9    11    1
    43    26    27    1
    44    35    40    1
@<TRIPOS>MOLECULE
*****
 40 44 0 0 0
SMALL
GASTEIGER

@<TRIPOS>ATOM
      1 C         139.5028  142.7784  165.2133 C.3     1  UNL1        0.1485
      2 F         140.4731  143.7851  165.7563 F       1  UNL1       -0.2386
      3 C         138.4491  142.1652  164.3393 C.3     1  UNL1        0.0354
      4 C         137.9722  140.7685  164.6070 C.3     1  UNL1        0.0185
      5 C         138.5488  139.9850  165.7487 C.3     1  UNL1        0.0544
      6 C         139.6025  140.5982  166.6228 C.3     1  UNL1        0.0185
      7 C         140.0794  141.9949  166.3551 C.3     1  UNL1        0.0354
      8 C         139.2631  143.9116  164.2601 C.3     1  UNL1        0.1041
      9 N         137.8845  144.1628  163.7252 N.3     1  UNL1       -0.3185
     10 H         137.2391  143.4738  164.1115 H       1  UNL1        0.1189
     11 H         137.8952  144.0858  162.7081 H       1  UNL1        0.1189
     12 C         140.4021  144.7936  163.8420 C.3     1  UNL1        0.1272
     13 C         143.9675  142.1255  163.1943 C.ar    1  UNL1        0.1403
     14 C         144.5603  141.9856  161.8235 C.ar    1  UNL1        0.0385
     15 C         143.9647  142.7350  160.6687 C.ar    1  UNL1        0.0237
     16 C         142.7762  143.6243  160.8846 C.ar    1  UNL1        0.0975
     17 N         142.1806  144.3737  159.7298 N.ar    1  UNL1       -0.2374
     18 C         140.9922  145.2631  159.9457 C.ar    1  UNL1        0.1594
     19 C         140.3993  145.4030  161.3164 C.ar    1  UNL1        0.2803
     20 O         139.2109  146.2924  161.5323 O.2     1  UNL1       -0.2653
     21 N         140.9949  144.6536  162.4713 N.ar    1  UNL1       -0.2913
     22 C         142.1834  143.7643  162.2553 C.ar    1  UNL1        0.0832
     23 C         142.7790  143.0148  163.4102 C.ar    1  UNL1        0.0557
     24 C         143.7305  140.3889  165.1120 C.3     1  UNL1        0.2525
     25 O         144.5631  141.3761  164.3491 O.3     1  UNL1       -0.4714
     26 N         138.0719  138.5883  166.0164 N.3     1  UNL1       -0.2935
     27 H         137.0944  138.5505  165.7277 H       1  UNL1        0.1236
     28 C         138.7601  137.4236  165.3685 C.3     1  UNL1        0.1152
     29 C         139.5815  137.6315  164.1308 C.ar    1  UNL1        0.0765
     30 C         141.0789  137.5931  164.2092 C.ar    1  UNL1        0.0193
     31 C         141.9003  137.8010  162.9715 C.ar    1  UNL1        0.0411
     32 C         141.2244  138.0473  161.6553 C.ar    1  UNL1        0.1708
     33 C         139.7269  138.0856  161.5769 C.ar    1  UNL1        0.1682
     34 N         138.9054  137.8777  162.8146 N.ar    1  UNL1       -0.2304
     35 N         139.0509  138.3318  160.2606 N.am    1  UNL1       -0.2639
     36 C         139.8723  138.5397  159.0229 C.2     1  UNL1        0.2718
     37 O         139.1963  138.7859  157.7067 O.2     1  UNL1       -0.2707
     38 C         141.3698  138.5014  159.1014 C.3     1  UNL1        0.2898
     39 O         142.0458  138.2552  160.4176 O.3     1  UNL1       -0.4628
     40 H         138.0681  138.3570  160.2091 H       1  UNL1        0.1565
@<TRIPOS>BOND
     1    24    25    1
     2    25    13    1
     3    13    14   ar
     4    14    15   ar
     5    15    16   ar
     6    16    17   ar
     7    17    18   ar
     8    18    19   ar
     9    19    20    2
    10    19    21   ar
    11    21    12    1
    12    12     8    1
    13     8     9    1
    14     8     1    1
    15     1     2    1
    16     1     3    1
    17     3     4    1
    18     4     5    1
    19     5    26    1
    20    26    28    1
    21    28    29    1
    22    29    30   ar
    23    30    31   ar
    24    31    32   ar
    25    32    33   ar
    26    33    34   ar
    27    33    35    1
    28    35    36   am
    29    36    37    2
    30    36    38    1
    31    38    39    1
    32     5     6    1
    33     6     7    1
    34    21    22   ar
    35    22    23   ar
    36    23    13   ar
    37    22    16   ar
    38     7     1    1
    39    34    29   ar
    40    39    32    1
    41     9    10    1
    42     9    11    1
    43    26    27    1
    44    35    40    1
@<TRIPOS>MOLECULE
*****
 40 44 0 0 0
SMALL
GASTEIGER

@<TRIPOS>ATOM
      1 C         141.9464  144.7068  162.8811 C.3     1  UNL1        0.1485
      2 F         142.0448  145.1315  164.3163 F       1  UNL1       -0.2386
      3 C         141.3821  144.5073  161.5057 C.3     1  UNL1        0.0354
      4 C         142.1934  143.8067  160.4565 C.3     1  UNL1        0.0185
      5 C         143.5690  143.3055  160.7827 C.3     1  UNL1        0.0544
      6 C         144.1333  143.5049  162.1581 C.3     1  UNL1        0.0185
      7 C         143.3220  144.2055  163.2073 C.3     1  UNL1        0.0354
      8 C         140.6049  145.3555  163.0534 C.3     1  UNL1        0.1041
      9 N         140.1726  146.4444  162.1167 N.3     1  UNL1       -0.3185
     10 H         140.9077  146.6140  161.4302 H       1  UNL1        0.1189
     11 H         139.9980  147.2987  162.6459 H       1  UNL1        0.1189
     12 C         139.6958  144.9153  164.1623 C.3     1  UNL1        0.1272
     13 C         140.6728  142.0172  167.4633 C.ar    1  UNL1        0.1403
     14 C         140.0850  140.6373  167.4481 C.ar    1  UNL1        0.0385
     15 C         139.1716  140.2234  166.3326 C.ar    1  UNL1        0.0237
     16 C         138.8459  141.1894  165.2323 C.ar    1  UNL1        0.0975
     17 N         137.9325  140.7754  164.1168 N.ar    1  UNL1       -0.2374
     18 C         137.6068  141.7414  163.0165 C.ar    1  UNL1        0.1594
     19 C         138.1946  143.1215  163.0316 C.ar    1  UNL1        0.2803
     20 O         137.8689  144.0875  161.9313 O.2     1  UNL1       -0.2653
     21 N         139.1080  143.5354  164.1471 N.ar    1  UNL1       -0.2913
     22 C         139.4337  142.5693  165.2475 C.ar    1  UNL1        0.0832
     23 C         140.3471  142.9832  166.3629 C.ar    1  UNL1        0.0557
     24 C         142.9096  141.7480  168.7570 C.3     1  UNL1        0.2525
     25 O         141.5862  142.4312  168.5787 O.3     1  UNL1       -0.4714
     26 N         144.3803  142.6048  159.7335 N.3     1  UNL1       -0.2935
     27 H         145.3602  142.7246  159.9902 H       1  UNL1        0.1236
     28 C         144.1750  141.1407  159.4801 C.3     1  UNL1        0.1152
     29 C         143.3941  140.3127  160.4571 C.ar    1  UNL1        0.0765
     30 C         144.0785  139.7191  161.6525 C.ar    1  UNL1        0.0193
     31 C         143.2976  138.8910  162.6295 C.ar    1  UNL1        0.0411
     32 C         141.8322  138.6566  162.4111 C.ar    1  UNL1        0.1708
     33 C         141.1477  139.2503  161.2155 C.ar    1  UNL1        0.1682
     34 N         141.9287  140.0783  160.2386 N.ar    1  UNL1       -0.2304
     35 N         139.6824  139.0159  160.9971 N.am    1  UNL1       -0.2639
     36 C         138.9015  138.1879  161.9741 C.2     1  UNL1        0.2718
     37 O         137.4360  137.9535  161.7556 O.2     1  UNL1       -0.2707
     38 C         139.5859  137.5942  163.1695 C.3     1  UNL1        0.2898
     39 O         141.0513  137.8286  163.3880 O.3     1  UNL1       -0.4628
     40 H         139.2331  139.4055  160.2125 H       1  UNL1        0.1565
@<TRIPOS>BOND
     1    24    25    1
     2    25    13    1
     3    13    14   ar
     4    14    15   ar
     5    15    16   ar
     6    16    17   ar
     7    17    18   ar
     8    18    19   ar
     9    19    20    2
    10    19    21   ar
    11    21    12    1
    12    12     8    1
    13     8     9    1
    14     8     1    1
    15     1     2    1
    16     1     3    1
    17     3     4    1
    18     4     5    1
    19     5    26    1
    20    26    28    1
    21    28    29    1
    22    29    30   ar
    23    30    31   ar
    24    31    32   ar
    25    32    33   ar
    26    33    34   ar
    27    33    35    1
    28    35    36   am
    29    36    37    2
    30    36    38    1
    31    38    39    1
    32     5     6    1
    33     6     7    1
    34    21    22   ar
    35    22    23   ar
    36    23    13   ar
    37    22    16   ar
    38     7     1    1
    39    34    29   ar
    40    39    32    1
    41     9    10    1
    42     9    11    1
    43    26    27    1
    44    35    40    1
@<TRIPOS>MOLECULE
*****
 40 44 0 0 0
SMALL
GASTEIGER

@<TRIPOS>ATOM
      1 C         138.0885  142.4286  162.9328 C.3     1  UNL1        0.1485
      2 F         137.7262  142.8000  161.5255 F       1  UNL1       -0.2386
      3 C         138.5520  142.5682  164.3527 C.3     1  UNL1        0.0354
      4 C         138.5985  141.3657  165.2480 C.3     1  UNL1        0.0185
      5 C         138.1817  140.0236  164.7236 C.3     1  UNL1        0.0544
      6 C         137.7183  139.8840  163.3038 C.3     1  UNL1        0.0185
      7 C         137.6717  141.0865  162.4085 C.3     1  UNL1        0.0354
      8 C         138.3796  143.8998  162.9685 C.3     1  UNL1        0.1041
      9 N         137.3112  144.8849  162.5968 N.3     1  UNL1       -0.3185
     10 H         136.4582  144.3838  162.3486 H       1  UNL1        0.1189
     11 H         137.6232  145.4404  161.8003 H       1  UNL1        0.1189
     12 C         139.7390  144.3857  163.3758 C.3     1  UNL1        0.1272
     13 C         143.4688  142.5719  165.1219 C.ar    1  UNL1        0.1403
     14 C         144.6550  142.3049  164.2435 C.ar    1  UNL1        0.0385
     15 C         144.5979  142.6425  162.7831 C.ar    1  UNL1        0.0237
     16 C         143.3547  143.2471  162.2011 C.ar    1  UNL1        0.0975
     17 N         143.2977  143.5847  160.7407 N.ar    1  UNL1       -0.2374
     18 C         142.0544  144.1893  160.1586 C.ar    1  UNL1        0.1594
     19 C         140.8681  144.4563  161.0370 C.ar    1  UNL1        0.2803
     20 O         139.6249  145.0609  160.4550 O.2     1  UNL1       -0.2653
     21 N         140.9252  144.1187  162.4974 N.ar    1  UNL1       -0.2913
     22 C         142.1685  143.5141  163.0795 C.ar    1  UNL1        0.0832
     23 C         142.2255  143.1765  164.5399 C.ar    1  UNL1        0.0557
     24 C         142.2563  142.0693  167.3640 C.3     1  UNL1        0.2525
     25 O         143.5258  142.2343  166.5823 O.3     1  UNL1       -0.4714
     26 N         138.2282  138.8211  165.6190 N.3     1  UNL1       -0.2935
     27 H         137.3192  138.3641  165.5458 H       1  UNL1        0.1236
     28 C         139.2652  137.7603  165.3969 C.3     1  UNL1        0.1152
     29 C         140.5096  138.0783  164.6223 C.ar    1  UNL1        0.0765
     30 C         141.7078  138.6424  165.3265 C.ar    1  UNL1        0.0193
     31 C         142.9523  138.9605  164.5518 C.ar    1  UNL1        0.0411
     32 C         142.9986  138.7144  163.0729 C.ar    1  UNL1        0.1708
     33 C         141.8002  138.1502  162.3686 C.ar    1  UNL1        0.1682
     34 N         140.5558  137.8322  163.1433 N.ar    1  UNL1       -0.2304
     35 N         141.8465  137.9042  160.8896 N.am    1  UNL1       -0.2639
     36 C         143.0910  138.2222  160.1150 C.2     1  UNL1        0.2718
     37 O         143.1372  137.9761  158.6360 O.2     1  UNL1       -0.2707
     38 C         144.2892  138.7864  160.8192 C.3     1  UNL1        0.2898
     39 O         144.2430  139.0324  162.2982 O.3     1  UNL1       -0.4628
     40 H         141.0601  137.5339  160.4274 H       1  UNL1        0.1565
@<TRIPOS>BOND
     1    24    25    1
     2    25    13    1
     3    13    14   ar
     4    14    15   ar
     5    15    16   ar
     6    16    17   ar
     7    17    18   ar
     8    18    19   ar
     9    19    20    2
    10    19    21   ar
    11    21    12    1
    12    12     8    1
    13     8     9    1
    14     8     1    1
    15     1     2    1
    16     1     3    1
    17     3     4    1
    18     4     5    1
    19     5    26    1
    20    26    28    1
    21    28    29    1
    22    29    30   ar
    23    30    31   ar
    24    31    32   ar
    25    32    33   ar
    26    33    34   ar
    27    33    35    1
    28    35    36   am
    29    36    37    2
    30    36    38    1
    31    38    39    1
    32     5     6    1
    33     6     7    1
    34    21    22   ar
    35    22    23   ar
    36    23    13   ar
    37    22    16   ar
    38     7     1    1
    39    34    29   ar
    40    39    32    1
    41     9    10    1
    42     9    11    1
    43    26    27    1
    44    35    40    1
