@<TRIPOS>MOLECULE
*****
 30 34 0 0 0
SMALL
GASTEIGER

@<TRIPOS>ATOM
      1 N         140.4792  140.6664  161.8945 N.3     1  UNL1       -0.2725
      2 C         141.5703  140.6202  162.9227 C.3     1  UNL1        0.0738
      3 C         141.2281  140.4373  164.3717 C.3     1  UNL1        0.0376
      4 C         139.7948  140.3005  164.7924 C.3     1  UNL1        0.0841
      5 C         138.7037  140.3466  163.7641 C.3     1  UNL1        0.0376
      6 C         139.0459  140.5296  162.3151 C.3     1  UNL1        0.0738
      7 N         139.4526  140.1176  166.2413 N.am    1  UNL1       -0.2423
      8 C         138.6670  138.9809  166.8250 C.2     1  UNL1        0.3309
      9 O         138.0856  137.8275  166.0622 O.2     1  UNL1       -0.2501
     10 N         138.5648  139.2000  168.3053 N.am    1  UNL1       -0.1647
     11 C         139.2873  140.4721  168.6366 C.2     1  UNL1        0.0706
     12 C         139.5163  141.1873  169.9351 C.3     1  UNL1        0.0705
     13 C         140.2942  142.4697  169.9579 C.2     1  UNL1       -0.0199
     14 C         140.8429  143.0368  168.6821 C.2     1  UNL1       -0.0029
     15 C         140.6138  142.3216  167.3837 C.2     1  UNL1        0.0156
     16 C         139.8360  141.0392  167.3610 C.2     1  UNL1        0.0668
     17 C         140.8214  140.8493  160.4456 C.3     1  UNL1        0.0739
     18 C         140.1434  141.9209  159.6443 C.3     1  UNL1        0.0392
     19 C         140.4311  143.3654  159.9286 C.3     1  UNL1        0.1010
     20 O         143.3803  143.6975  160.3667 O.2     1  UNL1       -0.2745
     21 C         142.4222  143.9422  161.4947 C.2     1  UNL1        0.2307
     22 C         142.9387  144.3530  162.8417 C.3     1  UNL1        0.0904
     23 C         141.9807  144.5978  163.9696 C.3     1  UNL1        0.0388
     24 C         140.5061  144.4317  163.7506 C.ar    1  UNL1        0.0103
     25 C         139.5481  144.6764  164.8785 C.ar    1  UNL1        0.0001
     26 C         138.0735  144.5103  164.6594 C.ar    1  UNL1        0.0204
     27 C         137.5570  144.0995  163.3124 C.ar    1  UNL1        0.1003
     28 N         138.5150  143.8548  162.1845 N.ar    1  UNL1       -0.2291
     29 C         139.9895  144.0209  162.4036 C.ar    1  UNL1        0.1333
     30 N         140.9476  143.7762  161.2756 N.am    1  UNL1       -0.2441
@<TRIPOS>BOND
     1    20    21    2
     2    21    22    1
     3    22    23    1
     4    23    24    1
     5    24    25   ar
     6    25    26   ar
     7    26    27   ar
     8    27    28   ar
     9    28    29   ar
    10    29    30    1
    11    30    19    1
    12    19    18    1
    13    18    17    1
    14    17     1    1
    15     1     2    1
    16     2     3    1
    17     3     4    1
    18     4     7    1
    19     7     8   am
    20     8     9    2
    21     8    10    1
    22    10    11    2
    23    11    12    1
    24    12    13    1
    25    13    14    2
    26    14    15    1
    27    15    16    2
    28     4     5    1
    29     5     6    1
    30    30    21   am
    31     6     1    1
    32    29    24   ar
    33    16     7    1
    34    16    11    1
@<TRIPOS>MOLECULE
*****
 30 34 0 0 0
SMALL
GASTEIGER

@<TRIPOS>ATOM
      1 N         142.9058  139.9552  162.0573 N.3     1  UNL1       -0.2725
      2 C         143.4495  139.2833  163.2832 C.3     1  UNL1        0.0738
      3 C         142.6315  139.2399  164.5399 C.3     1  UNL1        0.0376
      4 C         141.2699  139.8685  164.5705 C.3     1  UNL1        0.0841
      5 C         140.7262  140.5404  163.3445 C.3     1  UNL1        0.0376
      6 C         141.5442  140.5838  162.0880 C.3     1  UNL1        0.0738
      7 N         140.4519  139.8251  165.8271 N.am    1  UNL1       -0.2423
      8 C         139.2753  138.9306  166.0827 C.2     1  UNL1        0.3309
      9 O         138.7101  137.9223  165.1267 O.2     1  UNL1       -0.2501
     10 N         138.7631  139.2213  167.4623 N.am    1  UNL1       -0.1647
     11 C         139.6232  140.2955  168.0593 C.2     1  UNL1        0.0706
     12 C         139.5907  140.9820  169.3925 C.3     1  UNL1        0.0705
     13 C         140.6021  142.0418  169.7152 C.2     1  UNL1       -0.0199
     14 C         141.6459  142.4150  168.7046 C.2     1  UNL1       -0.0029
     15 C         141.6782  141.7284  167.3713 C.2     1  UNL1        0.0156
     16 C         140.6669  140.6687  167.0487 C.2     1  UNL1        0.0668
     17 C         143.7238  139.9986  160.8008 C.3     1  UNL1        0.0739
     18 C         143.8960  141.2928  160.0622 C.3     1  UNL1        0.0392
     19 C         144.6390  142.4282  160.7018 C.3     1  UNL1        0.1010
     20 O         146.1895  141.6195  163.1394 O.2     1  UNL1       -0.2745
     21 C         145.0003  142.5239  163.2728 C.2     1  UNL1        0.2307
     22 C         144.5863  143.0240  164.6250 C.3     1  UNL1        0.0904
     23 C         143.3971  143.9284  164.7585 C.3     1  UNL1        0.0388
     24 C         142.6218  144.3328  163.5396 C.ar    1  UNL1        0.0103
     25 C         141.4326  145.2372  163.6731 C.ar    1  UNL1        0.0001
     26 C         140.6574  145.6415  162.4543 C.ar    1  UNL1        0.0204
     27 C         141.0714  145.1414  161.1020 C.ar    1  UNL1        0.1003
     28 N         142.2606  144.2370  160.9686 N.ar    1  UNL1       -0.2291
     29 C         143.0358  143.8327  162.1874 C.ar    1  UNL1        0.1333
     30 N         144.2251  142.9282  162.0540 N.am    1  UNL1       -0.2441
@<TRIPOS>BOND
     1    20    21    2
     2    21    22    1
     3    22    23    1
     4    23    24    1
     5    24    25   ar
     6    25    26   ar
     7    26    27   ar
     8    27    28   ar
     9    28    29   ar
    10    29    30    1
    11    30    19    1
    12    19    18    1
    13    18    17    1
    14    17     1    1
    15     1     2    1
    16     2     3    1
    17     3     4    1
    18     4     7    1
    19     7     8   am
    20     8     9    2
    21     8    10    1
    22    10    11    2
    23    11    12    1
    24    12    13    1
    25    13    14    2
    26    14    15    1
    27    15    16    2
    28     4     5    1
    29     5     6    1
    30    30    21   am
    31     6     1    1
    32    29    24   ar
    33    16     7    1
    34    16    11    1
@<TRIPOS>MOLECULE
*****
 30 34 0 0 0
SMALL
GASTEIGER

@<TRIPOS>ATOM
      1 N         141.9742  140.4222  162.4390 N.3     1  UNL1       -0.2725
      2 C         140.7473  140.1429  163.2555 C.3     1  UNL1        0.0738
      3 C         140.8351  140.1058  164.7525 C.3     1  UNL1        0.0376
      4 C         142.1498  140.3480  165.4329 C.3     1  UNL1        0.0841
      5 C         143.3767  140.6273  164.6163 C.3     1  UNL1        0.0376
      6 C         143.2889  140.6644  163.1194 C.3     1  UNL1        0.0738
      7 N         142.2377  140.3109  166.9299 N.am    1  UNL1       -0.2423
      8 C         142.9586  139.2789  167.7454 C.2     1  UNL1        0.3309
      9 O         143.7184  138.1028  167.2072 O.2     1  UNL1       -0.2501
     10 N         142.7865  139.6294  169.1937 N.am    1  UNL1       -0.1647
     11 C         141.9591  140.8781  169.2732 C.2     1  UNL1        0.0706
     12 C         141.4709  141.6860  170.4389 C.3     1  UNL1        0.0705
     13 C         140.6433  142.9151  170.2055 C.2     1  UNL1       -0.0199
     14 C         140.3041  143.3363  168.8063 C.2     1  UNL1       -0.0029
     15 C         140.7924  142.5283  167.6406 C.2     1  UNL1        0.0156
     16 C         141.6199  141.2992  167.8741 C.2     1  UNL1        0.0668
     17 C         141.8864  140.4593  160.9420 C.3     1  UNL1        0.0739
     18 C         140.7464  141.1704  160.2750 C.3     1  UNL1        0.0392
     19 C         140.6962  142.6696  160.2725 C.3     1  UNL1        0.1010
     20 O         143.4832  143.7166  160.6416 O.2     1  UNL1       -0.2745
     21 C         142.4455  143.9575  161.6976 C.2     1  UNL1        0.2307
     22 C         142.8014  144.7219  162.9382 C.3     1  UNL1        0.0904
     23 C         141.7637  144.9629  163.9942 C.3     1  UNL1        0.0388
     24 C         140.3701  144.4394  163.8097 C.ar    1  UNL1        0.0103
     25 C         139.3325  144.6803  164.8657 C.ar    1  UNL1        0.0001
     26 C         137.9390  144.1568  164.6811 C.ar    1  UNL1        0.0204
     27 C         137.5832  143.3924  163.4405 C.ar    1  UNL1        0.1003
     28 N         138.6208  143.1515  162.3845 N.ar    1  UNL1       -0.2291
     29 C         140.0143  143.6749  162.5691 C.ar    1  UNL1        0.1333
     30 N         141.0520  143.4340  161.5131 N.am    1  UNL1       -0.2441
@<TRIPOS>BOND
     1    20    21    2
     2    21    22    1
     3    22    23    1
     4    23    24    1
     5    24    25   ar
     6    25    26   ar
     7    26    27   ar
     8    27    28   ar
     9    28    29   ar
    10    29    30    1
    11    30    19    1
    12    19    18    1
    13    18    17    1
    14    17     1    1
    15     1     2    1
    16     2     3    1
    17     3     4    1
    18     4     7    1
    19     7     8   am
    20     8     9    2
    21     8    10    1
    22    10    11    2
    23    11    12    1
    24    12    13    1
    25    13    14    2
    26    14    15    1
    27    15    16    2
    28     4     5    1
    29     5     6    1
    30    30    21   am
    31     6     1    1
    32    29    24   ar
    33    16     7    1
    34    16    11    1
@<TRIPOS>MOLECULE
*****
 30 34 0 0 0
SMALL
GASTEIGER

@<TRIPOS>ATOM
      1 N         138.5310  139.6953  164.1857 N.3     1  UNL1       -0.2725
      2 C         138.5385  138.5997  165.2102 C.3     1  UNL1        0.0738
      3 C         138.9633  138.8927  166.6187 C.3     1  UNL1        0.0376
      4 C         139.3807  140.2814  167.0026 C.3     1  UNL1        0.0841
      5 C         139.3732  141.3770  165.9780 C.3     1  UNL1        0.0376
      6 C         138.9484  141.0839  164.5696 C.3     1  UNL1        0.0738
      7 N         139.8056  140.5745  168.4109 N.am    1  UNL1       -0.2423
      8 C         139.0446  140.2187  169.6536 C.2     1  UNL1        0.3309
      9 O         137.7251  139.5072  169.7060 O.2     1  UNL1       -0.2501
     10 N         139.8347  140.6991  170.8346 N.am    1  UNL1       -0.1647
     11 C         141.0841  141.3520  170.3218 C.2     1  UNL1        0.0706
     12 C         142.2358  142.0066  171.0255 C.3     1  UNL1        0.0705
     13 C         143.3696  142.5842  170.2311 C.2     1  UNL1       -0.0199
     14 C         143.3516  142.5072  168.7331 C.2     1  UNL1       -0.0029
     15 C         142.1998  141.8525  168.0296 C.2     1  UNL1        0.0156
     16 C         141.0661  141.2749  168.8239 C.2     1  UNL1        0.0668
     17 C         138.1061  139.4022  162.7774 C.3     1  UNL1        0.0739
     18 C         138.9681  138.5472  161.8965 C.3     1  UNL1        0.0392
     19 C         140.4004  138.9227  161.6564 C.3     1  UNL1        0.1010
     20 O         141.1000  136.6299  163.4603 O.2     1  UNL1       -0.2745
     21 C         141.6741  137.9911  163.7203 C.2     1  UNL1        0.2307
     22 C         142.5980  138.2059  164.8823 C.3     1  UNL1        0.0904
     23 C         143.1721  139.5671  165.1424 C.3     1  UNL1        0.0388
     24 C         142.8223  140.7135  164.2404 C.ar    1  UNL1        0.0103
     25 C         143.3964  142.0746  164.5005 C.ar    1  UNL1        0.0001
     26 C         143.0466  143.2209  163.5986 C.ar    1  UNL1        0.0204
     27 C         142.1227  143.0061  162.4366 C.ar    1  UNL1        0.1003
     28 N         141.5486  141.6450  162.1765 N.ar    1  UNL1       -0.2291
     29 C         141.8984  140.4987  163.0784 C.ar    1  UNL1        0.1333
     30 N         141.3243  139.1375  162.8184 N.am    1  UNL1       -0.2441
@<TRIPOS>BOND
     1    20    21    2
     2    21    22    1
     3    22    23    1
     4    23    24    1
     5    24    25   ar
     6    25    26   ar
     7    26    27   ar
     8    27    28   ar
     9    28    29   ar
    10    29    30    1
    11    30    19    1
    12    19    18    1
    13    18    17    1
    14    17     1    1
    15     1     2    1
    16     2     3    1
    17     3     4    1
    18     4     7    1
    19     7     8   am
    20     8     9    2
    21     8    10    1
    22    10    11    2
    23    11    12    1
    24    12    13    1
    25    13    14    2
    26    14    15    1
    27    15    16    2
    28     4     5    1
    29     5     6    1
    30    30    21   am
    31     6     1    1
    32    29    24   ar
    33    16     7    1
    34    16    11    1
@<TRIPOS>MOLECULE
*****
 30 34 0 0 0
SMALL
GASTEIGER

@<TRIPOS>ATOM
      1 N         139.7833  141.0328  162.6989 N.3     1  UNL1       -0.2725
      2 C         139.3062  142.1042  163.6340 C.3     1  UNL1        0.0738
      3 C         139.4804  141.9394  165.1148 C.3     1  UNL1        0.0376
      4 C         140.1317  140.7033  165.6604 C.3     1  UNL1        0.0841
      5 C         140.6089  139.6319  164.7252 C.3     1  UNL1        0.0376
      6 C         140.4347  139.7967  163.2445 C.3     1  UNL1        0.0738
      7 N         140.3060  140.5385  167.1410 N.am    1  UNL1       -0.2423
      8 C         139.4061  139.7587  168.0533 C.2     1  UNL1        0.3309
      9 O         138.1741  139.0068  167.6450 O.2     1  UNL1       -0.2501
     10 N         139.9546  139.8628  169.4455 N.am    1  UNL1       -0.1647
     11 C         141.1935  140.7069  169.3937 C.2     1  UNL1        0.0706
     12 C         142.1519  141.1492  170.4595 C.3     1  UNL1        0.0705
     13 C         143.3275  142.0092  170.1010 C.2     1  UNL1       -0.0199
     14 C         143.5447  142.4268  168.6766 C.2     1  UNL1       -0.0029
     15 C         142.5862  141.9844  167.6109 C.2     1  UNL1        0.0156
     16 C         141.4106  141.1245  167.9695 C.2     1  UNL1        0.0668
     17 C         139.6091  141.1976  161.2183 C.3     1  UNL1        0.0739
     18 C         139.9489  142.5039  160.5639 C.3     1  UNL1        0.0392
     19 C         141.3738  142.9704  160.5158 C.3     1  UNL1        0.1010
     20 O         140.6182  145.6061  161.7333 O.2     1  UNL1       -0.2745
     21 C         141.6742  144.7575  162.3775 C.2     1  UNL1        0.2307
     22 C         142.3523  145.2268  163.6304 C.3     1  UNL1        0.0904
     23 C         143.4082  144.3784  164.2746 C.3     1  UNL1        0.0388
     24 C         143.7861  143.0605  163.6659 C.ar    1  UNL1        0.0103
     25 C         144.8420  142.2120  164.3101 C.ar    1  UNL1        0.0001
     26 C         145.2197  140.8941  163.7013 C.ar    1  UNL1        0.0204
     27 C         144.5416  140.4248  162.4484 C.ar    1  UNL1        0.1003
     28 N         143.4857  141.2733  161.8042 N.ar    1  UNL1       -0.2291
     29 C         143.1079  142.5911  162.4129 C.ar    1  UNL1        0.1333
     30 N         142.0519  143.4397  161.7687 N.am    1  UNL1       -0.2441
@<TRIPOS>BOND
     1    20    21    2
     2    21    22    1
     3    22    23    1
     4    23    24    1
     5    24    25   ar
     6    25    26   ar
     7    26    27   ar
     8    27    28   ar
     9    28    29   ar
    10    29    30    1
    11    30    19    1
    12    19    18    1
    13    18    17    1
    14    17     1    1
    15     1     2    1
    16     2     3    1
    17     3     4    1
    18     4     7    1
    19     7     8   am
    20     8     9    2
    21     8    10    1
    22    10    11    2
    23    11    12    1
    24    12    13    1
    25    13    14    2
    26    14    15    1
    27    15    16    2
    28     4     5    1
    29     5     6    1
    30    30    21   am
    31     6     1    1
    32    29    24   ar
    33    16     7    1
    34    16    11    1
@<TRIPOS>MOLECULE
*****
 30 34 0 0 0
SMALL
GASTEIGER

@<TRIPOS>ATOM
      1 N         141.4428  142.4848  161.7980 N.3     1  UNL1       -0.2725
      2 C         141.3468  143.7026  162.6684 C.3     1  UNL1        0.0738
      3 C         141.6649  143.6060  164.1311 C.3     1  UNL1        0.0376
      4 C         142.0789  142.2916  164.7234 C.3     1  UNL1        0.0841
      5 C         142.1749  141.0737  163.8529 C.3     1  UNL1        0.0376
      6 C         141.8568  141.1703  162.3903 C.3     1  UNL1        0.0738
      7 N         142.3970  142.1950  166.1861 N.am    1  UNL1       -0.2423
      8 C         143.5745  142.8183  166.8753 C.2     1  UNL1        0.3309
      9 O         144.6406  143.6476  166.2230 O.2     1  UNL1       -0.2501
     10 N         143.4986  142.4667  168.3316 N.am    1  UNL1       -0.1647
     11 C         142.2743  141.6260  168.5423 C.2     1  UNL1        0.0706
     12 C         141.6915  140.9918  169.7703 C.3     1  UNL1        0.0705
     13 C         140.4278  140.1896  169.6724 C.2     1  UNL1       -0.0199
     14 C         139.7469  140.0217  168.3463 C.2     1  UNL1       -0.0029
     15 C         140.3298  140.6560  167.1183 C.2     1  UNL1        0.0156
     16 C         141.5935  141.4581  167.2163 C.2     1  UNL1        0.0668
     17 C         141.1247  142.5814  160.3353 C.3     1  UNL1        0.0739
     18 C         139.7956  143.1158  159.8905 C.3     1  UNL1        0.0392
     19 C         138.5312  142.4289  160.3143 C.3     1  UNL1        0.1010
     20 O         137.7467  144.4340  162.4034 O.2     1  UNL1       -0.2745
     21 C         137.9618  142.9991  162.7842 C.2     1  UNL1        0.2307
     22 C         137.7846  142.5669  164.2096 C.3     1  UNL1        0.0904
     23 C         137.9996  141.1321  164.5904 C.3     1  UNL1        0.0388
     24 C         138.3919  140.1295  163.5459 C.ar    1  UNL1        0.0103
     25 C         138.6070  138.6947  163.9267 C.ar    1  UNL1        0.0001
     26 C         138.9992  137.6922  162.8822 C.ar    1  UNL1        0.0204
     27 C         139.1764  138.1245  161.4568 C.ar    1  UNL1        0.1003
     28 N         138.9613  139.5593  161.0760 N.ar    1  UNL1       -0.2291
     29 C         138.5691  140.5618  162.1205 C.ar    1  UNL1        0.1333
     30 N         138.3540  141.9966  161.7397 N.am    1  UNL1       -0.2441
@<TRIPOS>BOND
     1    20    21    2
     2    21    22    1
     3    22    23    1
     4    23    24    1
     5    24    25   ar
     6    25    26   ar
     7    26    27   ar
     8    27    28   ar
     9    28    29   ar
    10    29    30    1
    11    30    19    1
    12    19    18    1
    13    18    17    1
    14    17     1    1
    15     1     2    1
    16     2     3    1
    17     3     4    1
    18     4     7    1
    19     7     8   am
    20     8     9    2
    21     8    10    1
    22    10    11    2
    23    11    12    1
    24    12    13    1
    25    13    14    2
    26    14    15    1
    27    15    16    2
    28     4     5    1
    29     5     6    1
    30    30    21   am
    31     6     1    1
    32    29    24   ar
    33    16     7    1
    34    16    11    1
@<TRIPOS>MOLECULE
*****
 30 34 0 0 0
SMALL
GASTEIGER

@<TRIPOS>ATOM
      1 N         141.4290  140.1346  162.4194 N.3     1  UNL1       -0.2725
      2 C         140.2729  140.0119  163.3671 C.3     1  UNL1        0.0738
      3 C         140.5094  140.0512  164.8478 C.3     1  UNL1        0.0376
      4 C         141.9022  140.2132  165.3808 C.3     1  UNL1        0.0841
      5 C         143.0584  140.3359  164.4330 C.3     1  UNL1        0.0376
      6 C         142.8218  140.2966  162.9523 C.3     1  UNL1        0.0738
      7 N         142.1388  140.2525  166.8615 N.am    1  UNL1       -0.2423
      8 C         142.9551  139.2720  167.6502 C.2     1  UNL1        0.3309
      9 O         143.6782  138.0801  167.0967 O.2     1  UNL1       -0.2501
     10 N         142.9215  139.6927  169.0896 N.am    1  UNL1       -0.1647
     11 C         142.0843  140.9333  169.1905 C.2     1  UNL1        0.0706
     12 C         141.7000  141.7925  170.3583 C.3     1  UNL1        0.0705
     13 C         140.8318  142.9978  170.1492 C.2     1  UNL1       -0.0199
     14 C         140.3481  143.3438  168.7720 C.2     1  UNL1       -0.0029
     15 C         140.7325  142.4845  167.6042 C.2     1  UNL1        0.0156
     16 C         141.6005  141.2793  167.8134 C.2     1  UNL1        0.0668
     17 C         141.1925  140.0953  160.9387 C.3     1  UNL1        0.0739
     18 C         140.1239  140.9521  160.3269 C.3     1  UNL1        0.0392
     19 C         140.2873  142.4427  160.2901 C.3     1  UNL1        0.1010
     20 O         137.6005  142.9923  161.5062 O.2     1  UNL1       -0.2745
     21 C         138.8429  143.5145  162.1649 C.2     1  UNL1        0.2307
     22 C         138.7418  144.3115  163.4316 C.3     1  UNL1        0.0904
     23 C         139.9841  144.8337  164.0903 C.3     1  UNL1        0.0388
     24 C         141.3276  144.5589  163.4823 C.ar    1  UNL1        0.0103
     25 C         142.5699  145.0811  164.1410 C.ar    1  UNL1        0.0001
     26 C         143.9133  144.8063  163.5329 C.ar    1  UNL1        0.0204
     27 C         144.0144  144.0093  162.2662 C.ar    1  UNL1        0.1003
     28 N         142.7721  143.4871  161.6075 N.ar    1  UNL1       -0.2291
     29 C         141.4287  143.7619  162.2156 C.ar    1  UNL1        0.1333
     30 N         140.1863  143.2397  161.5569 N.am    1  UNL1       -0.2441
@<TRIPOS>BOND
     1    20    21    2
     2    21    22    1
     3    22    23    1
     4    23    24    1
     5    24    25   ar
     6    25    26   ar
     7    26    27   ar
     8    27    28   ar
     9    28    29   ar
    10    29    30    1
    11    30    19    1
    12    19    18    1
    13    18    17    1
    14    17     1    1
    15     1     2    1
    16     2     3    1
    17     3     4    1
    18     4     7    1
    19     7     8   am
    20     8     9    2
    21     8    10    1
    22    10    11    2
    23    11    12    1
    24    12    13    1
    25    13    14    2
    26    14    15    1
    27    15    16    2
    28     4     5    1
    29     5     6    1
    30    30    21   am
    31     6     1    1
    32    29    24   ar
    33    16     7    1
    34    16    11    1
@<TRIPOS>MOLECULE
*****
 30 34 0 0 0
SMALL
GASTEIGER

@<TRIPOS>ATOM
      1 N         139.6669  142.3231  160.1425 N.3     1  UNL1       -0.2725
      2 C         140.7051  141.3142  160.5351 C.3     1  UNL1        0.0738
      3 C         140.5968  140.5989  161.8491 C.3     1  UNL1        0.0376
      4 C         139.4502  140.8926  162.7706 C.3     1  UNL1        0.0841
      5 C         138.4120  141.9016  162.3780 C.3     1  UNL1        0.0376
      6 C         138.5204  142.6168  161.0640 C.3     1  UNL1        0.0738
      7 N         139.3418  140.1773  164.0846 N.am    1  UNL1       -0.2423
      8 C         138.8879  138.7615  164.2829 C.2     1  UNL1        0.3309
      9 O         138.4627  137.8123  163.2021 O.2     1  UNL1       -0.2501
     10 N         138.9339  138.4615  165.7519 N.am    1  UNL1       -0.1647
     11 C         139.4162  139.6919  166.4615 C.2     1  UNL1        0.0706
     12 C         139.6583  139.9836  167.9127 C.3     1  UNL1        0.0705
     13 C         140.1526  141.3358  168.3336 C.2     1  UNL1       -0.0199
     14 C         140.4048  142.3964  167.3031 C.2     1  UNL1       -0.0029
     15 C         140.1626  142.1046  165.8518 C.2     1  UNL1        0.0156
     16 C         139.6683  140.7523  165.4310 C.2     1  UNL1        0.0668
     17 C         139.7753  143.0383  158.8285 C.3     1  UNL1        0.0739
     18 C         140.0147  144.5188  158.7979 C.3     1  UNL1        0.0392
     19 C         141.2049  145.1008  159.5015 C.3     1  UNL1        0.1010
     20 O         139.1796  146.4368  161.2661 O.2     1  UNL1       -0.2745
     21 C         140.3090  145.6600  161.8753 C.2     1  UNL1        0.2307
     22 C         140.4258  145.5512  163.3668 C.3     1  UNL1        0.0904
     23 C         141.5551  144.7744  163.9760 C.3     1  UNL1        0.0388
     24 C         142.5678  144.1064  163.0937 C.ar    1  UNL1        0.0103
     25 C         143.6971  143.3296  163.7029 C.ar    1  UNL1        0.0001
     26 C         144.7097  142.6617  162.8207 C.ar    1  UNL1        0.0204
     27 C         144.5929  142.7704  161.3292 C.ar    1  UNL1        0.1003
     28 N         143.4636  143.5472  160.7199 N.ar    1  UNL1       -0.2291
     29 C         142.4510  144.2152  161.6022 C.ar    1  UNL1        0.1333
     30 N         141.3216  144.9920  160.9930 N.am    1  UNL1       -0.2441
@<TRIPOS>BOND
     1    20    21    2
     2    21    22    1
     3    22    23    1
     4    23    24    1
     5    24    25   ar
     6    25    26   ar
     7    26    27   ar
     8    27    28   ar
     9    28    29   ar
    10    29    30    1
    11    30    19    1
    12    19    18    1
    13    18    17    1
    14    17     1    1
    15     1     2    1
    16     2     3    1
    17     3     4    1
    18     4     7    1
    19     7     8   am
    20     8     9    2
    21     8    10    1
    22    10    11    2
    23    11    12    1
    24    12    13    1
    25    13    14    2
    26    14    15    1
    27    15    16    2
    28     4     5    1
    29     5     6    1
    30    30    21   am
    31     6     1    1
    32    29    24   ar
    33    16     7    1
    34    16    11    1
@<TRIPOS>MOLECULE
*****
 30 34 0 0 0
SMALL
GASTEIGER

@<TRIPOS>ATOM
      1 N         140.7090  140.7874  161.8942 N.3     1  UNL1       -0.2725
      2 C         140.4039  141.9815  162.7492 C.3     1  UNL1        0.0738
      3 C         140.1877  141.8125  164.2239 C.3     1  UNL1        0.0376
      4 C         140.2765  140.4493  164.8435 C.3     1  UNL1        0.0841
      5 C         140.5816  139.2552  163.9885 C.3     1  UNL1        0.0376
      6 C         140.7979  139.4243  162.5138 C.3     1  UNL1        0.0738
      7 N         140.0603  140.2803  166.3182 N.am    1  UNL1       -0.2423
      8 C         138.8886  139.6034  166.9656 C.2     1  UNL1        0.3309
      9 O         137.7275  138.9768  166.2520 O.2     1  UNL1       -0.2501
     10 N         139.0819  139.6632  168.4518 N.am    1  UNL1       -0.1647
     11 C         140.3731  140.3770  168.7231 C.2     1  UNL1        0.0706
     12 C         141.0762  140.7289  170.0004 C.3     1  UNL1        0.0705
     13 C         142.3841  141.4623  169.9591 C.2     1  UNL1       -0.0199
     14 C         142.9888  141.8436  168.6403 C.2     1  UNL1       -0.0029
     15 C         142.2856  141.4917  167.3630 C.2     1  UNL1        0.0156
     16 C         140.9777  140.7583  167.4044 C.2     1  UNL1        0.0668
     17 C         140.9253  140.9565  160.4195 C.3     1  UNL1        0.0739
     18 C         141.8970  141.9826  159.9168 C.3     1  UNL1        0.0392
     19 C         143.3643  141.8195  160.1823 C.3     1  UNL1        0.1010
     20 O         144.2097  139.0383  160.9241 O.2     1  UNL1       -0.2745
     21 C         144.2698  140.1375  161.9432 C.2     1  UNL1        0.2307
     22 C         144.7526  139.8460  163.3331 C.3     1  UNL1        0.0904
     23 C         144.8127  140.9450  164.3521 C.3     1  UNL1        0.0388
     24 C         144.3900  142.3357  163.9812 C.ar    1  UNL1        0.0103
     25 C         144.4501  143.4347  165.0002 C.ar    1  UNL1        0.0001
     26 C         144.0274  144.8253  164.6292 C.ar    1  UNL1        0.0204
     27 C         143.5447  145.1168  163.2393 C.ar    1  UNL1        0.1003
     28 N         143.4845  144.0177  162.2203 N.ar    1  UNL1       -0.2291
     29 C         143.9072  142.6272  162.5912 C.ar    1  UNL1        0.1333
     30 N         143.8471  141.5280  161.5722 N.am    1  UNL1       -0.2441
@<TRIPOS>BOND
     1    20    21    2
     2    21    22    1
     3    22    23    1
     4    23    24    1
     5    24    25   ar
     6    25    26   ar
     7    26    27   ar
     8    27    28   ar
     9    28    29   ar
    10    29    30    1
    11    30    19    1
    12    19    18    1
    13    18    17    1
    14    17     1    1
    15     1     2    1
    16     2     3    1
    17     3     4    1
    18     4     7    1
    19     7     8   am
    20     8     9    2
    21     8    10    1
    22    10    11    2
    23    11    12    1
    24    12    13    1
    25    13    14    2
    26    14    15    1
    27    15    16    2
    28     4     5    1
    29     5     6    1
    30    30    21   am
    31     6     1    1
    32    29    24   ar
    33    16     7    1
    34    16    11    1
