@<TRIPOS>MOLECULE
*****
 37 41 0 0 0
SMALL
GASTEIGER

@<TRIPOS>ATOM
      1 C         145.6314  141.6483  163.4672 C.3     1  UNL1        0.0553
      2 C         144.8034  141.5421  162.2210 C.ar    1  UNL1        0.0935
      3 N         144.7741  140.3754  161.2786 N.ar    1  UNL1       -0.1727
      4 N         143.8119  140.6963  160.1734 N.ar    1  UNL1       -0.2558
      5 C         143.2466  142.0612  160.4327 C.ar    1  UNL1        0.0704
      6 C         142.2445  142.7776  159.5770 C.3     1  UNL1        0.0531
      7 C         143.8593  142.5840  161.6982 C.ar    1  UNL1        0.0792
      8 C         143.4743  139.8081  159.0127 C.3     1  UNL1        0.1083
      9 C         142.7080  138.5385  159.2379 C.3     1  UNL1        0.0459
     10 C         142.3704  137.6502  158.0772 C.3     1  UNL1        0.0955
     11 N         142.7992  138.0318  156.6914 N.am    1  UNL1       -0.2775
     12 C         142.4617  137.1436  155.5306 C.2     1  UNL1        0.2525
     13 O         142.8904  137.5251  154.1447 O.2     1  UNL1       -0.2723
     14 C         143.5656  139.3015  156.4662 C.3     1  UNL1        0.0955
     15 C         143.9031  140.1896  157.6269 C.3     1  UNL1        0.0459
     16 C         141.6953  135.8739  155.7558 C.3     1  UNL1        0.1869
     17 C         142.4283  134.5787  155.9433 C.3     1  UNL1        0.0417
     18 O         140.1960  135.8995  155.7936 O.3     1  UNL1       -0.3758
     19 H         139.8611  135.0021  155.9470 H       1  UNL1        0.2110
     20 N         143.5776  143.9149  162.3300 N.pl3   1  UNL1       -0.2806
     21 H         144.2215  144.6531  162.2309 H       1  UNL1        0.1551
     22 C         142.3148  144.1213  163.1128 C.ar    1  UNL1        0.2208
     23 N         141.3601  145.2106  162.7227 N.ar    1  UNL1       -0.2111
     24 C         140.0974  145.4170  163.5055 C.ar    1  UNL1        0.1147
     25 C         139.7892  144.5342  164.6783 C.ar    1  UNL1        0.0946
     26 CL        138.5264  144.7406  165.4611 Cl      1  UNL1       -0.0790
     27 C         140.7439  143.4448  165.0684 C.ar    1  UNL1        0.0992
     28 N         142.0066  143.2385  164.2857 N.ar    1  UNL1       -0.2126
     29 C         140.4358  142.5620  166.2413 C.ar    1  UNL1        0.0572
     30 C         140.8914  142.7811  167.6535 C.ar    1  UNL1        0.1235
     31 N         140.3551  141.6596  168.4929 N.ar    1  UNL1       -0.1634
     32 N         139.5680  140.7473  167.5994 N.ar    1  UNL1       -0.2281
     33 C         138.8124  139.4808  167.8732 C.ar    1  UNL1        0.1004
     34 C         138.1065  138.7721  166.7554 C.ar    1  UNL1        0.0207
     35 C         138.1564  139.3299  165.3638 C.ar    1  UNL1        0.0031
     36 C         138.9120  140.5963  165.0901 C.ar    1  UNL1        0.0193
     37 C         139.6179  141.3051  166.2079 C.ar    1  UNL1        0.0858
@<TRIPOS>BOND
     1     1     2    1
     2     2     3   ar
     3     3     4   ar
     4     4     8    1
     5     8     9    1
     6     9    10    1
     7    10    11    1
     8    11    12   am
     9    12    13    2
    10    12    16    1
    11    16    17    1
    12    16    18    1
    13    11    14    1
    14    14    15    1
    15     4     5   ar
    16     5     6    1
    17     5     7   ar
    18     7    20    1
    19    20    22    1
    20    22    23   ar
    21    23    24   ar
    22    24    25   ar
    23    25    26    1
    24    25    27   ar
    25    27    29    1
    26    29    30   ar
    27    30    31   ar
    28    31    32   ar
    29    32    33   ar
    30    33    34   ar
    31    34    35   ar
    32    35    36   ar
    33    36    37   ar
    34    27    28   ar
    35     7     2   ar
    36    28    22   ar
    37    15     8    1
    38    37    29   ar
    39    37    32   ar
    40    18    19    1
    41    20    21    1
@<TRIPOS>MOLECULE
*****
 37 41 0 0 0
SMALL
GASTEIGER

@<TRIPOS>ATOM
      1 C         140.9216  145.4753  162.8286 C.3     1  UNL1        0.0553
      2 C         140.8874  144.7531  161.5144 C.ar    1  UNL1        0.0935
      3 N         139.7046  144.6449  160.5983 N.ar    1  UNL1       -0.1727
      4 N         140.1162  143.8373  159.4031 N.ar    1  UNL1       -0.2558
      5 C         141.5534  143.4464  159.5805 C.ar    1  UNL1        0.0704
      6 C         142.3706  142.6324  158.6216 C.3     1  UNL1        0.0531
      7 C         142.0301  144.0124  160.8853 C.ar    1  UNL1        0.0792
      8 C         139.2438  143.4828  158.2355 C.3     1  UNL1        0.1083
      9 C         138.2085  142.4060  158.3725 C.3     1  UNL1        0.0459
     10 C         137.3360  142.0515  157.2049 C.3     1  UNL1        0.0955
     11 N         137.4989  142.7739  155.9004 N.am    1  UNL1       -0.2775
     12 C         136.6264  142.4194  154.7328 C.2     1  UNL1        0.2525
     13 O         136.7893  143.1417  153.4283 O.2     1  UNL1       -0.2723
     14 C         138.5342  143.8506  155.7635 C.3     1  UNL1        0.0955
     15 C         139.4066  144.2051  156.9311 C.3     1  UNL1        0.0459
     16 C         135.5912  141.3426  154.8698 C.3     1  UNL1        0.1869
     17 C         135.8751  139.9602  154.3615 C.3     1  UNL1        0.0417
     18 O         134.2720  141.6482  155.5151 O.3     1  UNL1       -0.3758
     19 H         133.7232  140.8484  155.5235 H       1  UNL1        0.2110
     20 N         143.4076  143.8638  161.4602 N.pl3   1  UNL1       -0.2806
     21 H         144.0868  144.5573  161.2963 H       1  UNL1        0.1551
     22 C         143.7501  142.6586  162.2849 C.ar    1  UNL1        0.2208
     23 N         145.0863  142.5672  162.9605 N.ar    1  UNL1       -0.2111
     24 C         145.4289  141.3621  163.7852 C.ar    1  UNL1        0.1147
     25 C         144.4353  140.2483  163.9344 C.ar    1  UNL1        0.0946
     26 CL        144.7778  139.0431  164.7591 Cl      1  UNL1       -0.0790
     27 C         143.0990  140.3397  163.2588 C.ar    1  UNL1        0.0992
     28 N         142.7566  141.5448  162.4341 N.ar    1  UNL1       -0.2126
     29 C         142.1055  139.2258  163.4080 C.ar    1  UNL1        0.0572
     30 C         142.0993  137.9404  162.6349 C.ar    1  UNL1        0.1235
     31 N         140.9336  137.1221  163.1057 N.ar    1  UNL1       -0.1634
     32 N         140.2194  137.9018  164.1696 N.ar    1  UNL1       -0.2281
     33 C         139.0032  137.5958  164.9924 C.ar    1  UNL1        0.1004
     34 C         138.5112  138.5899  166.0021 C.ar    1  UNL1        0.0207
     35 C         139.2354  139.8902  166.1890 C.ar    1  UNL1        0.0031
     36 C         140.4517  140.1962  165.3662 C.ar    1  UNL1        0.0193
     37 C         140.9437  139.2020  164.3565 C.ar    1  UNL1        0.0858
@<TRIPOS>BOND
     1     1     2    1
     2     2     3   ar
     3     3     4   ar
     4     4     8    1
     5     8     9    1
     6     9    10    1
     7    10    11    1
     8    11    12   am
     9    12    13    2
    10    12    16    1
    11    16    17    1
    12    16    18    1
    13    11    14    1
    14    14    15    1
    15     4     5   ar
    16     5     6    1
    17     5     7   ar
    18     7    20    1
    19    20    22    1
    20    22    23   ar
    21    23    24   ar
    22    24    25   ar
    23    25    26    1
    24    25    27   ar
    25    27    29    1
    26    29    30   ar
    27    30    31   ar
    28    31    32   ar
    29    32    33   ar
    30    33    34   ar
    31    34    35   ar
    32    35    36   ar
    33    36    37   ar
    34    27    28   ar
    35     7     2   ar
    36    28    22   ar
    37    15     8    1
    38    37    29   ar
    39    37    32   ar
    40    18    19    1
    41    20    21    1
@<TRIPOS>MOLECULE
*****
 37 41 0 0 0
SMALL
GASTEIGER

@<TRIPOS>ATOM
      1 C         143.0898  145.1873  164.0053 C.3     1  UNL1        0.0553
      2 C         142.8499  144.6089  162.6423 C.ar    1  UNL1        0.0935
      3 N         141.8069  145.0610  161.6636 N.ar    1  UNL1       -0.1727
      4 N         141.9233  144.2083  160.4350 N.ar    1  UNL1       -0.2558
      5 C         143.0382  143.2292  160.6543 C.ar    1  UNL1        0.0704
      6 C         143.4995  142.1857  159.6805 C.3     1  UNL1        0.0531
      7 C         143.6110  143.4767  162.0184 C.ar    1  UNL1        0.0792
      8 C         141.0739  144.3159  159.2034 C.3     1  UNL1        0.1083
      9 C         140.0410  143.2683  158.9109 C.3     1  UNL1        0.0459
     10 C         139.1915  143.3758  157.6792 C.3     1  UNL1        0.0955
     11 N         139.3751  144.5310  156.7401 N.am    1  UNL1       -0.2775
     12 C         138.5256  144.6386  155.5084 C.2     1  UNL1        0.2525
     13 O         138.7092  145.7938  154.5693 O.2     1  UNL1       -0.2723
     14 C         140.4080  145.5786  157.0326 C.3     1  UNL1        0.0955
     15 C         141.2574  145.4710  158.2643 C.3     1  UNL1        0.0459
     16 C         137.4927  143.5910  155.2159 C.3     1  UNL1        0.1869
     17 C         137.7654  142.5362  154.1849 C.3     1  UNL1        0.0417
     18 O         136.1871  143.5982  155.9544 O.3     1  UNL1       -0.3758
     19 H         135.6380  142.8597  155.6477 H       1  UNL1        0.2110
     20 N         144.7455  142.7242  162.6483 N.pl3   1  UNL1       -0.2806
     21 H         145.6752  142.9893  162.4624 H       1  UNL1        0.1551
     22 C         144.4634  141.5679  163.5612 C.ar    1  UNL1        0.2208
     23 N         145.3914  140.3898  163.5879 N.ar    1  UNL1       -0.2111
     24 C         145.1094  139.2335  164.5008 C.ar    1  UNL1        0.1147
     25 C         143.8994  139.2554  165.3871 C.ar    1  UNL1        0.0946
     26 CL        143.6174  138.0991  166.3000 Cl      1  UNL1       -0.0790
     27 C         142.9714  140.4337  165.3604 C.ar    1  UNL1        0.0992
     28 N         143.2534  141.5899  164.4475 N.ar    1  UNL1       -0.2126
     29 C         141.7614  140.4556  166.2466 C.ar    1  UNL1        0.0572
     30 C         141.5460  141.3617  167.4224 C.ar    1  UNL1        0.1235
     31 N         140.2058  141.0413  168.0151 N.ar    1  UNL1       -0.1634
     32 N         139.5930  139.9372  167.2057 N.ar    1  UNL1       -0.2281
     33 C         138.2837  139.2146  167.3226 C.ar    1  UNL1        0.1004
     34 C         137.9358  138.1301  166.3466 C.ar    1  UNL1        0.0207
     35 C         138.8972  137.7681  165.2536 C.ar    1  UNL1        0.0031
     36 C         140.2065  138.4906  165.1366 C.ar    1  UNL1        0.0193
     37 C         140.5543  139.5752  166.1127 C.ar    1  UNL1        0.0858
@<TRIPOS>BOND
     1     1     2    1
     2     2     3   ar
     3     3     4   ar
     4     4     8    1
     5     8     9    1
     6     9    10    1
     7    10    11    1
     8    11    12   am
     9    12    13    2
    10    12    16    1
    11    16    17    1
    12    16    18    1
    13    11    14    1
    14    14    15    1
    15     4     5   ar
    16     5     6    1
    17     5     7   ar
    18     7    20    1
    19    20    22    1
    20    22    23   ar
    21    23    24   ar
    22    24    25   ar
    23    25    26    1
    24    25    27   ar
    25    27    29    1
    26    29    30   ar
    27    30    31   ar
    28    31    32   ar
    29    32    33   ar
    30    33    34   ar
    31    34    35   ar
    32    35    36   ar
    33    36    37   ar
    34    27    28   ar
    35     7     2   ar
    36    28    22   ar
    37    15     8    1
    38    37    29   ar
    39    37    32   ar
    40    18    19    1
    41    20    21    1
@<TRIPOS>MOLECULE
*****
 37 41 0 0 0
SMALL
GASTEIGER

@<TRIPOS>ATOM
      1 C         138.5578  137.7826  162.4966 C.3     1  UNL1        0.0553
      2 C         138.7242  138.9353  163.4419 C.ar    1  UNL1        0.0935
      3 N         139.5005  138.9181  164.7253 N.ar    1  UNL1       -0.1727
      4 N         139.3997  140.2798  165.3464 N.ar    1  UNL1       -0.2558
      5 C         138.5611  141.1386  164.4468 C.ar    1  UNL1        0.0704
      6 C         138.2029  142.5759  164.6827 C.3     1  UNL1        0.0531
      7 C         138.1436  140.3077  163.2697 C.ar    1  UNL1        0.0792
      8 C         140.0272  140.7076  166.6399 C.3     1  UNL1        0.1083
      9 C         141.1879  141.6576  166.6322 C.3     1  UNL1        0.0459
     10 C         141.8155  142.0855  167.9258 C.3     1  UNL1        0.0955
     11 N         141.2823  141.5631  169.2269 N.am    1  UNL1       -0.2775
     12 C         141.9099  141.9910  170.5204 C.2     1  UNL1        0.2525
     13 O         141.3767  141.4687  171.8216 O.2     1  UNL1       -0.2723
     14 C         140.1216  140.6131  169.2345 C.3     1  UNL1        0.0955
     15 C         139.4941  140.1853  167.9409 C.3     1  UNL1        0.0459
     16 C         143.0706  142.9410  170.5128 C.3     1  UNL1        0.1869
     17 C         144.4011  142.4953  169.9827 C.3     1  UNL1        0.0417
     18 O         142.9008  144.3368  171.0353 O.3     1  UNL1       -0.3758
     19 H         143.7412  144.8152  170.9586 H       1  UNL1        0.2110
     20 N         137.2947  140.7682  162.1220 N.pl3   1  UNL1       -0.2806
     21 H         136.3137  140.7097  162.1809 H       1  UNL1        0.1551
     22 C         137.9404  141.3177  160.8846 C.ar    1  UNL1        0.2208
     23 N         138.6823  142.6201  160.9410 N.ar    1  UNL1       -0.2111
     24 C         139.3279  143.1697  159.7036 C.ar    1  UNL1        0.1147
     25 C         139.2316  142.4167  158.4099 C.ar    1  UNL1        0.0946
     26 CL        139.8773  142.9663  157.1725 Cl      1  UNL1       -0.0790
     27 C         138.4897  141.1142  158.3535 C.ar    1  UNL1        0.0992
     28 N         137.8441  140.5648  159.5909 N.ar    1  UNL1       -0.2126
     29 C         138.3934  140.3613  157.0597 C.ar    1  UNL1        0.0572
     30 C         139.3951  139.3746  156.5371 C.ar    1  UNL1        0.1235
     31 N         138.8993  138.8664  155.2158 N.ar    1  UNL1       -0.1634
     32 N         137.5911  139.5390  154.9218 N.ar    1  UNL1       -0.2281
     33 C         136.6443  139.4295  153.7636 C.ar    1  UNL1        0.1004
     34 C         135.3848  140.2439  153.7450 C.ar    1  UNL1        0.0207
     35 C         135.0722  141.1678  154.8846 C.ar    1  UNL1        0.0031
     36 C         136.0190  141.2773  156.0428 C.ar    1  UNL1        0.0193
     37 C         137.2785  140.4629  156.0614 C.ar    1  UNL1        0.0858
@<TRIPOS>BOND
     1     1     2    1
     2     2     3   ar
     3     3     4   ar
     4     4     8    1
     5     8     9    1
     6     9    10    1
     7    10    11    1
     8    11    12   am
     9    12    13    2
    10    12    16    1
    11    16    17    1
    12    16    18    1
    13    11    14    1
    14    14    15    1
    15     4     5   ar
    16     5     6    1
    17     5     7   ar
    18     7    20    1
    19    20    22    1
    20    22    23   ar
    21    23    24   ar
    22    24    25   ar
    23    25    26    1
    24    25    27   ar
    25    27    29    1
    26    29    30   ar
    27    30    31   ar
    28    31    32   ar
    29    32    33   ar
    30    33    34   ar
    31    34    35   ar
    32    35    36   ar
    33    36    37   ar
    34    27    28   ar
    35     7     2   ar
    36    28    22   ar
    37    15     8    1
    38    37    29   ar
    39    37    32   ar
    40    18    19    1
    41    20    21    1
@<TRIPOS>MOLECULE
*****
 37 41 0 0 0
SMALL
GASTEIGER

@<TRIPOS>ATOM
      1 C         144.3825  142.8125  160.9340 C.3     1  UNL1        0.0553
      2 C         143.4765  143.1061  162.0928 C.ar    1  UNL1        0.0935
      3 N         143.4520  142.3722  163.4008 N.ar    1  UNL1       -0.1727
      4 N         142.3963  142.9977  164.2636 N.ar    1  UNL1       -0.2558
      5 C         141.7683  144.1181  163.4889 C.ar    1  UNL1        0.0704
      6 C         140.6663  145.0141  163.9710 C.3     1  UNL1        0.0531
      7 C         142.4359  144.1851  162.1472 C.ar    1  UNL1        0.0792
      8 C         142.0324  142.5766  165.6566 C.3     1  UNL1        0.1083
      9 C         143.1018  142.4232  166.6971 C.3     1  UNL1        0.0459
     10 C         142.7380  142.0022  168.0902 C.3     1  UNL1        0.0955
     11 N         141.3047  141.7346  168.4424 N.am    1  UNL1       -0.2775
     12 C         140.9409  141.3135  169.8355 C.2     1  UNL1        0.2525
     13 O         139.5076  141.0459  170.1879 O.2     1  UNL1       -0.2723
     14 C         140.2353  141.8880  167.4019 C.3     1  UNL1        0.0955
     15 C         140.5992  142.3090  166.0089 C.3     1  UNL1        0.0459
     16 C         142.0103  141.1601  170.8760 C.3     1  UNL1        0.1869
     17 C         142.9246  139.9715  170.8422 C.3     1  UNL1        0.0417
     18 O         142.1654  142.1953  171.9505 O.3     1  UNL1       -0.3758
     19 H         142.8971  141.9460  172.5364 H       1  UNL1        0.2110
     20 N         142.1187  145.1600  161.0522 N.pl3   1  UNL1       -0.2806
     21 H         142.4815  146.0745  161.0870 H       1  UNL1        0.1551
     22 C         141.2486  144.7415  159.9042 C.ar    1  UNL1        0.2208
     23 N         140.5006  143.4427  159.9646 N.ar    1  UNL1       -0.2111
     24 C         139.6306  143.0242  158.8167 C.ar    1  UNL1        0.1147
     25 C         139.5086  143.9045  157.6082 C.ar    1  UNL1        0.0946
     26 CL        138.6386  143.4860  156.4603 Cl      1  UNL1       -0.0790
     27 C         140.2567  145.2033  157.5478 C.ar    1  UNL1        0.0992
     28 N         141.1266  145.6217  158.6958 N.ar    1  UNL1       -0.2126
     29 C         140.1346  146.0836  156.3394 C.ar    1  UNL1        0.0572
     30 C         139.1283  147.1787  156.1443 C.ar    1  UNL1        0.1235
     31 N         139.3693  147.7951  154.7983 N.ar    1  UNL1       -0.1634
     32 N         140.5246  147.0811  154.1615 N.ar    1  UNL1       -0.2281
     33 C         141.2069  147.2574  152.8374 C.ar    1  UNL1        0.1004
     34 C         142.3622  146.3759  152.4658 C.ar    1  UNL1        0.0207
     35 C         142.8352  145.3181  153.4183 C.ar    1  UNL1        0.0031
     36 C         142.1529  145.1418  154.7424 C.ar    1  UNL1        0.0193
     37 C         140.9976  146.0232  155.1140 C.ar    1  UNL1        0.0858
@<TRIPOS>BOND
     1     1     2    1
     2     2     3   ar
     3     3     4   ar
     4     4     8    1
     5     8     9    1
     6     9    10    1
     7    10    11    1
     8    11    12   am
     9    12    13    2
    10    12    16    1
    11    16    17    1
    12    16    18    1
    13    11    14    1
    14    14    15    1
    15     4     5   ar
    16     5     6    1
    17     5     7   ar
    18     7    20    1
    19    20    22    1
    20    22    23   ar
    21    23    24   ar
    22    24    25   ar
    23    25    26    1
    24    25    27   ar
    25    27    29    1
    26    29    30   ar
    27    30    31   ar
    28    31    32   ar
    29    32    33   ar
    30    33    34   ar
    31    34    35   ar
    32    35    36   ar
    33    36    37   ar
    34    27    28   ar
    35     7     2   ar
    36    28    22   ar
    37    15     8    1
    38    37    29   ar
    39    37    32   ar
    40    18    19    1
    41    20    21    1
@<TRIPOS>MOLECULE
*****
 37 41 0 0 0
SMALL
GASTEIGER

@<TRIPOS>ATOM
      1 C         144.4296  143.0313  163.1707 C.3     1  UNL1        0.0553
      2 C         143.5844  142.9134  161.9372 C.ar    1  UNL1        0.0935
      3 N         143.3032  144.0098  160.9529 N.ar    1  UNL1       -0.1727
      4 N         142.4169  143.4524  159.8786 N.ar    1  UNL1       -0.2558
      5 C         142.1503  142.0115  160.1990 C.ar    1  UNL1        0.0704
      6 C         141.3099  141.0692  159.3894 C.3     1  UNL1        0.0531
      7 C         142.8718  141.6783  161.4712 C.ar    1  UNL1        0.0792
      8 C         141.8898  144.2040  158.6923 C.3     1  UNL1        0.1083
      9 C         140.5519  144.8782  158.7657 C.3     1  UNL1        0.0459
     10 C         140.0247  145.6298  157.5793 C.3     1  UNL1        0.0955
     11 N         140.8356  145.7071  156.3198 N.am    1  UNL1       -0.2775
     12 C         140.3084  146.4587  155.1334 C.2     1  UNL1        0.2525
     13 O         141.1192  146.5360  153.8738 O.2     1  UNL1       -0.2723
     14 C         142.1735  145.0328  156.2464 C.3     1  UNL1        0.0955
     15 C         142.7006  144.2813  157.4328 C.3     1  UNL1        0.0459
     16 C         138.9705  147.1329  155.2068 C.3     1  UNL1        0.1869
     17 C         138.8735  148.5597  155.6594 C.3     1  UNL1        0.0417
     18 O         137.7296  146.3804  154.8275 O.3     1  UNL1       -0.3758
     19 H         136.9570  146.9577  154.9309 H       1  UNL1        0.2110
     20 N         142.8795  140.3444  162.1572 N.pl3   1  UNL1       -0.2806
     21 H         143.5143  139.6480  161.8721 H       1  UNL1        0.1551
     22 C         141.9201  140.0715  163.2774 C.ar    1  UNL1        0.2208
     23 N         140.5200  139.6269  162.9741 N.ar    1  UNL1       -0.2111
     24 C         139.5605  139.3539  164.0944 C.ar    1  UNL1        0.1147
     25 C         140.0012  139.5256  165.5179 C.ar    1  UNL1        0.0946
     26 CL        139.0417  139.2527  166.6381 Cl      1  UNL1       -0.0790
     27 C         141.4014  139.9703  165.8211 C.ar    1  UNL1        0.0992
     28 N         142.3607  140.2432  164.7009 N.ar    1  UNL1       -0.2126
     29 C         141.8420  140.1420  167.2446 C.ar    1  UNL1        0.0572
     30 C         142.7498  139.2203  168.0039 C.ar    1  UNL1        0.1235
     31 N         142.9210  139.7742  169.3873 N.ar    1  UNL1       -0.1634
     32 N         142.1191  141.0382  169.4830 N.ar    1  UNL1       -0.2281
     33 C         141.9100  142.0116  170.6050 C.ar    1  UNL1        0.1004
     34 C         141.0340  143.2123  170.4026 C.ar    1  UNL1        0.0207
     35 C         140.3671  143.4396  169.0784 C.ar    1  UNL1        0.0031
     36 C         140.5762  142.4662  167.9565 C.ar    1  UNL1        0.0193
     37 C         141.4522  141.2655  168.1588 C.ar    1  UNL1        0.0858
@<TRIPOS>BOND
     1     1     2    1
     2     2     3   ar
     3     3     4   ar
     4     4     8    1
     5     8     9    1
     6     9    10    1
     7    10    11    1
     8    11    12   am
     9    12    13    2
    10    12    16    1
    11    16    17    1
    12    16    18    1
    13    11    14    1
    14    14    15    1
    15     4     5   ar
    16     5     6    1
    17     5     7   ar
    18     7    20    1
    19    20    22    1
    20    22    23   ar
    21    23    24   ar
    22    24    25   ar
    23    25    26    1
    24    25    27   ar
    25    27    29    1
    26    29    30   ar
    27    30    31   ar
    28    31    32   ar
    29    32    33   ar
    30    33    34   ar
    31    34    35   ar
    32    35    36   ar
    33    36    37   ar
    34    27    28   ar
    35     7     2   ar
    36    28    22   ar
    37    15     8    1
    38    37    29   ar
    39    37    32   ar
    40    18    19    1
    41    20    21    1
@<TRIPOS>MOLECULE
*****
 37 41 0 0 0
SMALL
GASTEIGER

@<TRIPOS>ATOM
      1 C         143.9611  142.7306  160.5694 C.3     1  UNL1        0.0553
      2 C         143.1137  142.9562  161.7863 C.ar    1  UNL1        0.0935
      3 N         143.1183  142.1197  163.0314 N.ar    1  UNL1       -0.1727
      4 N         142.1203  142.7044  163.9864 N.ar    1  UNL1       -0.2558
      5 C         141.4988  143.9023  163.3316 C.ar    1  UNL1        0.0704
      6 C         140.4480  144.7889  163.9312 C.3     1  UNL1        0.0531
      7 C         142.1127  144.0580  161.9718 C.ar    1  UNL1        0.0792
      8 C         141.7999  142.1828  165.3559 C.3     1  UNL1        0.1083
      9 C         142.7679  142.3904  166.4828 C.3     1  UNL1        0.0459
     10 C         142.4476  141.8688  167.8523 C.3     1  UNL1        0.0955
     11 N         141.1593  141.1397  168.0947 N.am    1  UNL1       -0.2775
     12 C         140.8390  140.6181  169.4642 C.2     1  UNL1        0.2525
     13 O         139.5507  139.8889  169.7067 O.2     1  UNL1       -0.2723
     14 C         140.1913  140.9321  166.9677 C.3     1  UNL1        0.0955
     15 C         140.5118  141.4538  165.5983 C.3     1  UNL1        0.0459
     16 C         141.8069  140.8256  170.5911 C.3     1  UNL1        0.1869
     17 C         142.9788  139.9033  170.7527 C.3     1  UNL1        0.0417
     18 O         141.6030  141.9554  171.5565 O.3     1  UNL1       -0.3758
     19 H         142.3123  141.9474  172.2182 H       1  UNL1        0.2110
     20 N         141.7836  145.1275  160.9730 N.pl3   1  UNL1       -0.2806
     21 H         142.1054  146.0473  161.1127 H       1  UNL1        0.1551
     22 C         140.9643  144.7955  159.7612 C.ar    1  UNL1        0.2208
     23 N         140.0763  143.5866  159.7644 N.ar    1  UNL1       -0.2111
     24 C         139.2570  143.2546  158.5526 C.ar    1  UNL1        0.1147
     25 C         139.3255  144.1316  157.3376 C.ar    1  UNL1        0.0946
     26 CL        138.5062  143.7997  156.1258 Cl      1  UNL1       -0.0790
     27 C         140.2135  145.3406  157.3344 C.ar    1  UNL1        0.0992
     28 N         141.0328  145.6725  158.5462 N.ar    1  UNL1       -0.2126
     29 C         140.2820  146.2176  156.1194 C.ar    1  UNL1        0.0572
     30 C         140.9824  145.8901  154.8340 C.ar    1  UNL1        0.1235
     31 N         140.7954  147.0462  153.8968 N.ar    1  UNL1       -0.1634
     32 N         139.9796  148.0882  154.6029 N.ar    1  UNL1       -0.2281
     33 C         139.4846  149.4372  154.1725 C.ar    1  UNL1        0.1004
     34 C         138.6723  150.2740  155.1158 C.ar    1  UNL1        0.0207
     35 C         138.3550  149.7619  156.4895 C.ar    1  UNL1        0.0031
     36 C         138.8500  148.4130  156.9199 C.ar    1  UNL1        0.0193
     37 C         139.6623  147.5761  155.9766 C.ar    1  UNL1        0.0858
@<TRIPOS>BOND
     1     1     2    1
     2     2     3   ar
     3     3     4   ar
     4     4     8    1
     5     8     9    1
     6     9    10    1
     7    10    11    1
     8    11    12   am
     9    12    13    2
    10    12    16    1
    11    16    17    1
    12    16    18    1
    13    11    14    1
    14    14    15    1
    15     4     5   ar
    16     5     6    1
    17     5     7   ar
    18     7    20    1
    19    20    22    1
    20    22    23   ar
    21    23    24   ar
    22    24    25   ar
    23    25    26    1
    24    25    27   ar
    25    27    29    1
    26    29    30   ar
    27    30    31   ar
    28    31    32   ar
    29    32    33   ar
    30    33    34   ar
    31    34    35   ar
    32    35    36   ar
    33    36    37   ar
    34    27    28   ar
    35     7     2   ar
    36    28    22   ar
    37    15     8    1
    38    37    29   ar
    39    37    32   ar
    40    18    19    1
    41    20    21    1
@<TRIPOS>MOLECULE
*****
 37 41 0 0 0
SMALL
GASTEIGER

@<TRIPOS>ATOM
      1 C         138.4743  137.7319  162.6037 C.3     1  UNL1        0.0553
      2 C         138.7244  138.9158  163.4902 C.ar    1  UNL1        0.0935
      3 N         139.4325  138.8932  164.8124 N.ar    1  UNL1       -0.1727
      4 N         139.4561  140.2936  165.3496 N.ar    1  UNL1       -0.2558
      5 C         138.7625  141.1816  164.3594 C.ar    1  UNL1        0.0704
      6 C         138.5572  142.6612  164.4946 C.3     1  UNL1        0.0531
      7 C         138.3103  140.3301  163.2102 C.ar    1  UNL1        0.0792
      8 C         140.0661  140.7294  166.6488 C.3     1  UNL1        0.1083
      9 C         141.2618  141.6351  166.6494 C.3     1  UNL1        0.0459
     10 C         141.8718  142.0709  167.9487 C.3     1  UNL1        0.0955
     11 N         141.2861  141.6010  169.2471 N.am    1  UNL1       -0.2775
     12 C         141.8961  142.0369  170.5464 C.2     1  UNL1        0.2525
     13 O         141.3104  141.5670  171.8450 O.2     1  UNL1       -0.2723
     14 C         140.0904  140.6953  169.2465 C.3     1  UNL1        0.0955
     15 C         139.4804  140.2596  167.9472 C.3     1  UNL1        0.0459
     16 C         143.0918  142.9426  170.5471 C.3     1  UNL1        0.1869
     17 C         144.3974  142.4614  169.9867 C.3     1  UNL1        0.0417
     18 O         142.9820  144.3294  171.1080 O.3     1  UNL1       -0.3758
     19 H         143.8388  144.7778  171.0319 H       1  UNL1        0.2110
     20 N         137.5734  140.8087  161.9946 N.pl3   1  UNL1       -0.2806
     21 H         136.5921  140.8857  162.0124 H       1  UNL1        0.1551
     22 C         138.3316  141.1701  160.7518 C.ar    1  UNL1        0.2208
     23 N         138.0899  142.4909  160.0832 N.ar    1  UNL1       -0.2111
     24 C         138.8481  142.8522  158.8404 C.ar    1  UNL1        0.1147
     25 C         139.8480  141.8928  158.2662 C.ar    1  UNL1        0.0946
     26 CL        140.6061  142.2541  157.0234 Cl      1  UNL1       -0.0790
     27 C         140.0897  140.5719  158.9348 C.ar    1  UNL1        0.0992
     28 N         139.3315  140.2106  160.1776 N.ar    1  UNL1       -0.2126
     29 C         141.0895  139.6124  158.3606 C.ar    1  UNL1        0.0572
     30 C         142.5562  139.5757  158.6728 C.ar    1  UNL1        0.1235
     31 N         143.1713  138.4618  157.8785 N.ar    1  UNL1       -0.1634
     32 N         142.0849  137.8102  157.0755 N.ar    1  UNL1       -0.2281
     33 C         142.1009  136.6611  156.1114 C.ar    1  UNL1        0.1004
     34 C         140.8303  136.2233  155.4453 C.ar    1  UNL1        0.0207
     35 C         139.5436  136.9344  155.7433 C.ar    1  UNL1        0.0031
     36 C         139.5276  138.0834  156.7073 C.ar    1  UNL1        0.0193
     37 C         140.7982  138.5213  157.3734 C.ar    1  UNL1        0.0858
@<TRIPOS>BOND
     1     1     2    1
     2     2     3   ar
     3     3     4   ar
     4     4     8    1
     5     8     9    1
     6     9    10    1
     7    10    11    1
     8    11    12   am
     9    12    13    2
    10    12    16    1
    11    16    17    1
    12    16    18    1
    13    11    14    1
    14    14    15    1
    15     4     5   ar
    16     5     6    1
    17     5     7   ar
    18     7    20    1
    19    20    22    1
    20    22    23   ar
    21    23    24   ar
    22    24    25   ar
    23    25    26    1
    24    25    27   ar
    25    27    29    1
    26    29    30   ar
    27    30    31   ar
    28    31    32   ar
    29    32    33   ar
    30    33    34   ar
    31    34    35   ar
    32    35    36   ar
    33    36    37   ar
    34    27    28   ar
    35     7     2   ar
    36    28    22   ar
    37    15     8    1
    38    37    29   ar
    39    37    32   ar
    40    18    19    1
    41    20    21    1
@<TRIPOS>MOLECULE
*****
 37 41 0 0 0
SMALL
GASTEIGER

@<TRIPOS>ATOM
      1 C         140.1319  144.7846  158.7593 C.3     1  UNL1        0.0553
      2 C         139.9412  143.2976  158.8090 C.ar    1  UNL1        0.0935
      3 N         140.6618  142.2876  157.9659 N.ar    1  UNL1       -0.1727
      4 N         140.1623  140.9253  158.3464 N.ar    1  UNL1       -0.2558
      5 C         139.1331  141.0933  159.4245 C.ar    1  UNL1        0.0704
      6 C         138.3739  139.9891  160.0984 C.3     1  UNL1        0.0531
      7 C         138.9964  142.5595  159.7105 C.ar    1  UNL1        0.0792
      8 C         140.6130  139.6235  157.7528 C.3     1  UNL1        0.1083
      9 C         142.0213  139.1514  157.9621 C.3     1  UNL1        0.0459
     10 C         142.4720  137.8496  157.3686 C.3     1  UNL1        0.0955
     11 N         141.5143  137.0200  156.5658 N.am    1  UNL1       -0.2775
     12 C         141.9650  135.7181  155.9722 C.2     1  UNL1        0.2525
     13 O         141.0073  134.8884  155.1694 O.2     1  UNL1       -0.2723
     14 C         140.1060  137.4920  156.3565 C.3     1  UNL1        0.0955
     15 C         139.6554  138.7938  156.9500 C.3     1  UNL1        0.0459
     16 C         143.3733  135.2461  156.1815 C.3     1  UNL1        0.1869
     17 C         143.6723  134.2230  157.2369 C.3     1  UNL1        0.0417
     18 O         144.4826  135.7971  155.3355 O.3     1  UNL1       -0.3758
     19 H         145.3227  135.3896  155.5983 H       1  UNL1        0.2110
     20 N         138.0766  143.1788  160.7205 N.pl3   1  UNL1       -0.2806
     21 H         137.1928  143.5117  160.4424 H       1  UNL1        0.1551
     22 C         138.5032  143.2910  162.1541 C.ar    1  UNL1        0.2208
     23 N         137.6268  143.9993  163.1442 N.ar    1  UNL1       -0.2111
     24 C         138.0534  144.1115  164.5779 C.ar    1  UNL1        0.1147
     25 C         139.3565  143.5155  165.0215 C.ar    1  UNL1        0.0946
     26 CL        139.7831  143.6277  166.4551 Cl      1  UNL1       -0.0790
     27 C         140.2330  142.8072  164.0313 C.ar    1  UNL1        0.0992
     28 N         139.8063  142.6950  162.5977 N.ar    1  UNL1       -0.2126
     29 C         141.5360  142.2112  164.4749 C.ar    1  UNL1        0.0572
     30 C         142.8178  142.9585  164.6950 C.ar    1  UNL1        0.1235
     31 N         143.8600  141.9724  165.1324 N.ar    1  UNL1       -0.1634
     32 N         143.2224  140.6156  165.1826 N.ar    1  UNL1       -0.2281
     33 C         143.7641  139.2648  165.5459 C.ar    1  UNL1        0.1004
     34 C         142.8694  138.0617  165.5027 C.ar    1  UNL1        0.0207
     35 C         141.4330  138.2093  165.0964 C.ar    1  UNL1        0.0031
     36 C         140.8914  139.5600  164.7331 C.ar    1  UNL1        0.0193
     37 C         141.7860  140.7632  164.7763 C.ar    1  UNL1        0.0858
@<TRIPOS>BOND
     1     1     2    1
     2     2     3   ar
     3     3     4   ar
     4     4     8    1
     5     8     9    1
     6     9    10    1
     7    10    11    1
     8    11    12   am
     9    12    13    2
    10    12    16    1
    11    16    17    1
    12    16    18    1
    13    11    14    1
    14    14    15    1
    15     4     5   ar
    16     5     6    1
    17     5     7   ar
    18     7    20    1
    19    20    22    1
    20    22    23   ar
    21    23    24   ar
    22    24    25   ar
    23    25    26    1
    24    25    27   ar
    25    27    29    1
    26    29    30   ar
    27    30    31   ar
    28    31    32   ar
    29    32    33   ar
    30    33    34   ar
    31    34    35   ar
    32    35    36   ar
    33    36    37   ar
    34    27    28   ar
    35     7     2   ar
    36    28    22   ar
    37    15     8    1
    38    37    29   ar
    39    37    32   ar
    40    18    19    1
    41    20    21    1
