@<TRIPOS>MOLECULE
*****
 23 25 0 0 0
SMALL
GASTEIGER

@<TRIPOS>ATOM
      1 C         140.3806  139.7731  166.8552 C.ar    1  UNL1       -0.0144
      2 C         141.6610  139.3174  166.2204 C.ar    1  UNL1        0.0051
      3 S         142.7446  139.3957  167.2546 S.2     1  UNL1       -0.0915
      4 C         142.1340  139.8998  168.5286 C.ar    1  UNL1        0.0288
      5 C         142.7196  140.1766  169.8815 C.ar    1  UNL1        0.0065
      6 C         141.8441  140.6865  170.9876 C.ar    1  UNL1        0.0005
      7 C         140.3831  140.9197  170.7408 C.ar    1  UNL1        0.0000
      8 C         139.7975  140.6430  169.3878 C.ar    1  UNL1        0.0002
      9 C         140.6729  140.1330  168.2818 C.ar    1  UNL1        0.0025
     10 C         138.0278  138.7710  166.3964 C.3     1  UNL1        0.0110
     11 C         139.0428  139.8545  166.1818 C.3     1  UNL1        0.0627
     12 C         138.7198  141.0193  165.2937 C.ar    1  UNL1        0.0629
     13 C         139.3577  142.3536  165.5449 C.ar    1  UNL1        0.0174
     14 C         139.0347  143.5185  164.6568 C.ar    1  UNL1        0.0325
     15 C         138.0738  143.3492  163.5175 C.ar    1  UNL1        0.1592
     16 F         137.7508  144.5141  162.6295 F       1  UNL1       -0.2025
     17 C         137.4359  142.0150  163.2663 C.ar    1  UNL1        0.1280
     18 N         137.7589  140.8501  164.1544 N.ar    1  UNL1       -0.2455
     19 C         141.8284  138.8632  164.8006 C.3     1  UNL1        0.0499
     20 C         141.0743  137.6661  164.3023 C.3     1  UNL1        0.0774
     21 N         140.3347  137.7347  162.9991 N.3     1  UNL1       -0.2700
     22 C         141.0913  137.9088  161.7156 C.3     1  UNL1        0.0897
     23 C         138.8385  137.6293  162.9794 C.3     1  UNL1        0.0897
@<TRIPOS>BOND
     1    11    10    1
     2    11    12    1
     3    12    13   ar
     4    13    14   ar
     5    14    15   ar
     6    15    16    1
     7    15    17   ar
     8    17    18   ar
     9    11     1    1
    10     1     2   ar
    11     2    19    1
    12    19    20    1
    13    20    21    1
    14    21    22    1
    15    21    23    1
    16     2     3   ar
    17     3     4   ar
    18     4     5   ar
    19     5     6   ar
    20     6     7   ar
    21     7     8   ar
    22     8     9   ar
    23    18    12   ar
    24     9     1   ar
    25     9     4   ar
@<TRIPOS>MOLECULE
*****
 23 25 0 0 0
SMALL
GASTEIGER

@<TRIPOS>ATOM
      1 C         138.7617  139.9199  164.7244 C.ar    1  UNL1       -0.0144
      2 C         139.0075  139.0774  163.5079 C.ar    1  UNL1        0.0051
      3 S         138.8319  139.9472  162.2986 S.2     1  UNL1       -0.0915
      4 C         138.4776  141.3273  162.7676 C.ar    1  UNL1        0.0288
      5 C         138.1889  142.5971  162.0231 C.ar    1  UNL1        0.0065
      6 C         137.8568  143.8500  162.7780 C.ar    1  UNL1        0.0005
      7 C         137.8133  143.8331  164.2773 C.ar    1  UNL1        0.0000
      8 C         138.1020  142.5633  165.0217 C.ar    1  UNL1        0.0002
      9 C         138.4342  141.3104  164.2668 C.ar    1  UNL1        0.0025
     10 C         137.7317  138.6043  166.7141 C.3     1  UNL1        0.0110
     11 C         138.8311  139.4537  166.1484 C.3     1  UNL1        0.0627
     12 C         139.9999  139.8369  167.0069 C.ar    1  UNL1        0.0629
     13 C         141.3164  140.1767  166.3733 C.ar    1  UNL1        0.0174
     14 C         142.4853  140.5599  167.2318 C.ar    1  UNL1        0.0325
     15 C         142.3376  140.6034  168.7239 C.ar    1  UNL1        0.1592
     16 F         143.5064  140.9866  169.5823 F       1  UNL1       -0.2025
     17 C         141.0211  140.2637  169.3574 C.ar    1  UNL1        0.1280
     18 N         139.8523  139.8805  168.4990 N.ar    1  UNL1       -0.2455
     19 C         139.3659  137.6209  163.5019 C.3     1  UNL1        0.0499
     20 C         140.7939  137.1991  163.6835 C.3     1  UNL1        0.0774
     21 N         141.8821  137.8830  162.9100 N.3     1  UNL1       -0.2700
     22 C         141.8790  137.8372  161.4107 C.3     1  UNL1        0.0897
     23 C         142.9733  138.6127  163.6358 C.3     1  UNL1        0.0897
@<TRIPOS>BOND
     1    11    10    1
     2    11    12    1
     3    12    13   ar
     4    13    14   ar
     5    14    15   ar
     6    15    16    1
     7    15    17   ar
     8    17    18   ar
     9    11     1    1
    10     1     2   ar
    11     2    19    1
    12    19    20    1
    13    20    21    1
    14    21    22    1
    15    21    23    1
    16     2     3   ar
    17     3     4   ar
    18     4     5   ar
    19     5     6   ar
    20     6     7   ar
    21     7     8   ar
    22     8     9   ar
    23    18    12   ar
    24     9     1   ar
    25     9     4   ar
@<TRIPOS>MOLECULE
*****
 23 25 0 0 0
SMALL
GASTEIGER

@<TRIPOS>ATOM
      1 C         140.2225  140.1202  165.0277 C.ar    1  UNL1       -0.0144
      2 C         139.7377  140.8974  163.8400 C.ar    1  UNL1        0.0051
      3 S         140.8876  141.0578  162.8902 S.2     1  UNL1       -0.0915
      4 C         142.0831  140.3797  163.4910 C.ar    1  UNL1        0.0288
      5 C         143.4928  140.2151  163.0059 C.ar    1  UNL1        0.0065
      6 C         144.4916  139.4710  163.8418 C.ar    1  UNL1        0.0005
      7 C         144.0806  138.8915  165.1628 C.ar    1  UNL1        0.0000
      8 C         142.6708  139.0561  165.6480 C.ar    1  UNL1        0.0002
      9 C         141.6721  139.8002  164.8121 C.ar    1  UNL1        0.0025
     10 C         138.3729  138.6461  166.1031 C.3     1  UNL1        0.0110
     11 C         139.4019  139.7312  166.2216 C.3     1  UNL1        0.0627
     12 C         139.6102  140.4271  167.5339 C.ar    1  UNL1        0.0629
     13 C         140.2790  141.7692  167.5733 C.ar    1  UNL1        0.0174
     14 C         140.4873  142.4652  168.8856 C.ar    1  UNL1        0.0325
     15 C         140.0269  141.8190  170.1586 C.ar    1  UNL1        0.1592
     16 F         140.2352  142.5150  171.4709 F       1  UNL1       -0.2025
     17 C         139.3581  140.4770  170.1192 C.ar    1  UNL1        0.1280
     18 N         139.1498  139.7810  168.8069 N.ar    1  UNL1       -0.2455
     19 C         138.3471  141.4221  163.6375 C.3     1  UNL1        0.0499
     20 C         137.8287  142.5282  164.5079 C.3     1  UNL1        0.0774
     21 N         138.2471  143.9452  164.2488 N.3     1  UNL1       -0.2700
     22 C         138.6306  144.8352  165.3937 C.3     1  UNL1        0.0897
     23 C         138.2819  144.4721  162.8448 C.3     1  UNL1        0.0897
@<TRIPOS>BOND
     1    11    10    1
     2    11    12    1
     3    12    13   ar
     4    13    14   ar
     5    14    15   ar
     6    15    16    1
     7    15    17   ar
     8    17    18   ar
     9    11     1    1
    10     1     2   ar
    11     2    19    1
    12    19    20    1
    13    20    21    1
    14    21    22    1
    15    21    23    1
    16     2     3   ar
    17     3     4   ar
    18     4     5   ar
    19     5     6   ar
    20     6     7   ar
    21     7     8   ar
    22     8     9   ar
    23    18    12   ar
    24     9     1   ar
    25     9     4   ar
@<TRIPOS>MOLECULE
*****
 23 25 0 0 0
SMALL
GASTEIGER

@<TRIPOS>ATOM
      1 C         140.4330  139.7751  166.7119 C.ar    1  UNL1       -0.0144
      2 C         141.7421  139.4129  166.0755 C.ar    1  UNL1        0.0051
      3 S         142.8101  139.5110  167.1242 S.2     1  UNL1       -0.0915
      4 C         142.1611  139.9338  168.4087 C.ar    1  UNL1        0.0288
      5 C         142.7181  140.1913  169.7774 C.ar    1  UNL1        0.0065
      6 C         141.8059  140.6120  170.8914 C.ar    1  UNL1        0.0005
      7 C         140.3368  140.7752  170.6366 C.ar    1  UNL1        0.0000
      8 C         139.7798  140.5178  169.2679 C.ar    1  UNL1        0.0002
      9 C         140.6920  140.0971  168.1539 C.ar    1  UNL1        0.0025
     10 C         138.1504  138.6569  166.1740 C.3     1  UNL1        0.0110
     11 C         139.0991  139.8094  166.0267 C.3     1  UNL1        0.0627
     12 C         138.7139  140.9961  165.1942 C.ar    1  UNL1        0.0629
     13 C         139.2684  142.3517  165.5185 C.ar    1  UNL1        0.0174
     14 C         138.8831  143.5385  164.6859 C.ar    1  UNL1        0.0325
     15 C         137.9434  143.3697  163.5290 C.ar    1  UNL1        0.1592
     16 F         137.5582  144.5565  162.6965 F       1  UNL1       -0.2025
     17 C         137.3889  142.0142  163.2047 C.ar    1  UNL1        0.1280
     18 N         137.7742  140.8274  164.0372 N.ar    1  UNL1       -0.2455
     19 C         141.9472  139.0214  164.6421 C.3     1  UNL1        0.0499
     20 C         143.3202  138.6726  164.1490 C.3     1  UNL1        0.0774
     21 N         144.1316  139.6921  163.4058 N.3     1  UNL1       -0.2700
     22 C         144.0624  139.7595  161.9089 C.3     1  UNL1        0.0897
     23 C         145.0122  140.6441  164.1595 C.3     1  UNL1        0.0897
@<TRIPOS>BOND
     1    11    10    1
     2    11    12    1
     3    12    13   ar
     4    13    14   ar
     5    14    15   ar
     6    15    16    1
     7    15    17   ar
     8    17    18   ar
     9    11     1    1
    10     1     2   ar
    11     2    19    1
    12    19    20    1
    13    20    21    1
    14    21    22    1
    15    21    23    1
    16     2     3   ar
    17     3     4   ar
    18     4     5   ar
    19     5     6   ar
    20     6     7   ar
    21     7     8   ar
    22     8     9   ar
    23    18    12   ar
    24     9     1   ar
    25     9     4   ar
@<TRIPOS>MOLECULE
*****
 23 25 0 0 0
SMALL
GASTEIGER

@<TRIPOS>ATOM
      1 C         142.8634  138.9662  165.0314 C.ar    1  UNL1       -0.0144
      2 C         143.7194  139.6108  163.9818 C.ar    1  UNL1        0.0051
      3 S         142.9570  139.5984  162.6901 S.2     1  UNL1       -0.0915
      4 C         141.6298  138.9461  162.9414 C.ar    1  UNL1        0.0288
      5 C         140.4665  138.6574  162.0395 C.ar    1  UNL1        0.0065
      6 C         139.2454  137.9781  162.5848 C.ar    1  UNL1        0.0005
      7 C         139.1876  137.5874  164.0318 C.ar    1  UNL1        0.0000
      8 C         140.3509  137.8761  164.9337 C.ar    1  UNL1        0.0002
      9 C         141.5720  138.5554  164.3885 C.ar    1  UNL1        0.0025
     10 C         144.0881  137.6012  166.8719 C.3     1  UNL1        0.0110
     11 C         143.2338  138.7674  166.4713 C.3     1  UNL1        0.0627
     12 C         142.7500  139.7345  167.5107 C.ar    1  UNL1        0.0629
     13 C         142.1600  141.0495  167.0949 C.ar    1  UNL1        0.0174
     14 C         141.6761  142.0167  168.1342 C.ar    1  UNL1        0.0325
     15 C         141.7823  141.6690  169.5896 C.ar    1  UNL1        0.1592
     16 F         141.2985  142.6363  170.6289 F       1  UNL1       -0.2025
     17 C         142.3723  140.3541  170.0054 C.ar    1  UNL1        0.1280
     18 N         142.8562  139.3869  168.9660 N.ar    1  UNL1       -0.2455
     19 C         145.0961  140.1697  164.1877 C.3     1  UNL1        0.0499
     20 C         145.5316  141.3889  163.4302 C.3     1  UNL1        0.0774
     21 N         144.8151  142.6915  163.6295 N.3     1  UNL1       -0.2700
     22 C         144.4234  143.5212  162.4428 C.3     1  UNL1        0.0897
     23 C         144.4902  143.1643  165.0154 C.3     1  UNL1        0.0897
@<TRIPOS>BOND
     1    11    10    1
     2    11    12    1
     3    12    13   ar
     4    13    14   ar
     5    14    15   ar
     6    15    16    1
     7    15    17   ar
     8    17    18   ar
     9    11     1    1
    10     1     2   ar
    11     2    19    1
    12    19    20    1
    13    20    21    1
    14    21    22    1
    15    21    23    1
    16     2     3   ar
    17     3     4   ar
    18     4     5   ar
    19     5     6   ar
    20     6     7   ar
    21     7     8   ar
    22     8     9   ar
    23    18    12   ar
    24     9     1   ar
    25     9     4   ar
@<TRIPOS>MOLECULE
*****
 23 25 0 0 0
SMALL
GASTEIGER

@<TRIPOS>ATOM
      1 C         142.3707  140.6367  164.9875 C.ar    1  UNL1       -0.0144
      2 C         141.3512  140.4516  163.9029 C.ar    1  UNL1        0.0051
      3 S         141.3204  141.7034  163.0772 S.2     1  UNL1       -0.0915
      4 C         142.3209  142.6622  163.6514 C.ar    1  UNL1        0.0288
      5 C         142.7247  144.0505  163.2517 C.ar    1  UNL1        0.0065
      6 C         143.7776  144.7794  164.0327 C.ar    1  UNL1        0.0005
      7 C         144.4268  144.1200  165.2134 C.ar    1  UNL1        0.0000
      8 C         144.0230  142.7318  165.6130 C.ar    1  UNL1        0.0002
      9 C         142.9701  142.0029  164.8320 C.ar    1  UNL1        0.0025
     10 C         143.7549  138.5765  165.7556 C.3     1  UNL1        0.0110
     11 C         142.7282  139.6319  166.0423 C.3     1  UNL1        0.0627
     12 C         142.0591  139.6825  167.3838 C.ar    1  UNL1        0.0629
     13 C         140.6211  140.0963  167.4896 C.ar    1  UNL1        0.0174
     14 C         139.9520  140.1469  168.8311 C.ar    1  UNL1        0.0325
     15 C         140.7207  139.7836  170.0669 C.ar    1  UNL1        0.1592
     16 F         140.0516  139.8341  171.4083 F       1  UNL1       -0.2025
     17 C         142.1586  139.3698  169.9611 C.ar    1  UNL1        0.1280
     18 N         142.8278  139.3192  168.6196 N.ar    1  UNL1       -0.2455
     19 C         140.5101  139.2292  163.6828 C.3     1  UNL1        0.0499
     20 C         139.0289  139.2867  163.9121 C.3     1  UNL1        0.0774
     21 N         138.1047  139.5943  162.7713 N.3     1  UNL1       -0.2700
     22 C         137.7729  138.5305  161.7671 C.3     1  UNL1        0.0897
     23 C         137.5124  140.9656  162.6347 C.3     1  UNL1        0.0897
@<TRIPOS>BOND
     1    11    10    1
     2    11    12    1
     3    12    13   ar
     4    13    14   ar
     5    14    15   ar
     6    15    16    1
     7    15    17   ar
     8    17    18   ar
     9    11     1    1
    10     1     2   ar
    11     2    19    1
    12    19    20    1
    13    20    21    1
    14    21    22    1
    15    21    23    1
    16     2     3   ar
    17     3     4   ar
    18     4     5   ar
    19     5     6   ar
    20     6     7   ar
    21     7     8   ar
    22     8     9   ar
    23    18    12   ar
    24     9     1   ar
    25     9     4   ar
@<TRIPOS>MOLECULE
*****
 23 25 0 0 0
SMALL
GASTEIGER

@<TRIPOS>ATOM
      1 C         140.3319  140.5955  165.5507 C.ar    1  UNL1       -0.0144
      2 C         139.4673  139.5114  164.9786 C.ar    1  UNL1        0.0051
      3 S         138.2338  140.1517  164.4142 S.2     1  UNL1       -0.0915
      4 C         138.3360  141.6315  164.6376 C.ar    1  UNL1        0.0288
      5 C         137.4159  142.7646  164.2921 C.ar    1  UNL1        0.0065
      6 C         137.7925  144.1720  164.6491 C.ar    1  UNL1        0.0005
      7 C         139.0892  144.4462  165.3515 C.ar    1  UNL1        0.0000
      8 C         140.0093  143.3131  165.6969 C.ar    1  UNL1        0.0002
      9 C         139.6327  141.9057  165.3400 C.ar    1  UNL1        0.0025
     10 C         141.7294  139.8741  167.6188 C.3     1  UNL1        0.0110
     11 C         141.6621  140.4031  166.2167 C.3     1  UNL1        0.0627
     12 C         142.9250  140.7396  165.4808 C.ar    1  UNL1        0.0629
     13 C         143.3625  142.1690  165.3564 C.ar    1  UNL1        0.0174
     14 C         144.6254  142.5056  164.6204 C.ar    1  UNL1        0.0325
     15 C         145.4510  141.4127  164.0088 C.ar    1  UNL1        0.1592
     16 F         146.7139  141.7493  163.2728 F       1  UNL1       -0.2025
     17 C         145.0135  139.9833  164.1332 C.ar    1  UNL1        0.1280
     18 N         143.7506  139.6467  164.8691 N.ar    1  UNL1       -0.2455
     19 C         139.7811  138.0446  164.9719 C.3     1  UNL1        0.0499
     20 C         140.8780  137.5163  164.0958 C.3     1  UNL1        0.0774
     21 N         140.8774  137.8212  162.6271 N.3     1  UNL1       -0.2700
     22 C         139.5846  137.8462  161.8668 C.3     1  UNL1        0.0897
     23 C         142.1696  138.1013  161.9187 C.3     1  UNL1        0.0897
@<TRIPOS>BOND
     1    11    10    1
     2    11    12    1
     3    12    13   ar
     4    13    14   ar
     5    14    15   ar
     6    15    16    1
     7    15    17   ar
     8    17    18   ar
     9    11     1    1
    10     1     2   ar
    11     2    19    1
    12    19    20    1
    13    20    21    1
    14    21    22    1
    15    21    23    1
    16     2     3   ar
    17     3     4   ar
    18     4     5   ar
    19     5     6   ar
    20     6     7   ar
    21     7     8   ar
    22     8     9   ar
    23    18    12   ar
    24     9     1   ar
    25     9     4   ar
@<TRIPOS>MOLECULE
*****
 23 25 0 0 0
SMALL
GASTEIGER

@<TRIPOS>ATOM
      1 C         139.8802  140.9002  165.0479 C.ar    1  UNL1       -0.0144
      2 C         141.1358  140.4944  164.3347 C.ar    1  UNL1        0.0051
      3 S         141.3496  141.4457  163.1949 S.2     1  UNL1       -0.0915
      4 C         140.2261  142.4395  163.2035 C.ar    1  UNL1        0.0288
      5 C         139.9127  143.6078  162.3166 C.ar    1  UNL1        0.0065
      6 C         138.6911  144.4390  162.5748 C.ar    1  UNL1        0.0005
      7 C         137.7829  144.1019  163.7201 C.ar    1  UNL1        0.0000
      8 C         138.0963  142.9336  164.6070 C.ar    1  UNL1        0.0002
      9 C         139.3179  142.1024  164.3488 C.ar    1  UNL1        0.0025
     10 C         138.3121  139.0995  166.0720 C.3     1  UNL1        0.0110
     11 C         139.2903  140.2229  166.2492 C.3     1  UNL1        0.0627
     12 C         139.6785  140.6688  167.6277 C.ar    1  UNL1        0.0629
     13 C         140.4678  141.9308  167.8133 C.ar    1  UNL1        0.0174
     14 C         140.8561  142.3767  169.1919 C.ar    1  UNL1        0.0325
     15 C         140.4550  141.5606  170.3849 C.ar    1  UNL1        0.1592
     16 F         140.8433  142.0066  171.7634 F       1  UNL1       -0.2025
     17 C         139.6658  140.2987  170.1993 C.ar    1  UNL1        0.1280
     18 N         139.2775  139.8527  168.8207 N.ar    1  UNL1       -0.2455
     19 C         142.0221  139.3399  164.6977 C.3     1  UNL1        0.0499
     20 C         141.7013  137.9622  164.1988 C.3     1  UNL1        0.0774
     21 N         140.9972  137.7850  162.8862 N.3     1  UNL1       -0.2700
     22 C         139.5104  137.5888  162.8531 C.3     1  UNL1        0.0897
     23 C         141.7799  137.8040  161.6067 C.3     1  UNL1        0.0897
@<TRIPOS>BOND
     1    11    10    1
     2    11    12    1
     3    12    13   ar
     4    13    14   ar
     5    14    15   ar
     6    15    16    1
     7    15    17   ar
     8    17    18   ar
     9    11     1    1
    10     1     2   ar
    11     2    19    1
    12    19    20    1
    13    20    21    1
    14    21    22    1
    15    21    23    1
    16     2     3   ar
    17     3     4   ar
    18     4     5   ar
    19     5     6   ar
    20     6     7   ar
    21     7     8   ar
    22     8     9   ar
    23    18    12   ar
    24     9     1   ar
    25     9     4   ar
@<TRIPOS>MOLECULE
*****
 23 25 0 0 0
SMALL
GASTEIGER

@<TRIPOS>ATOM
      1 C         141.2383  141.6732  166.2260 C.ar    1  UNL1       -0.0144
      2 C         140.8657  140.3110  165.7206 C.ar    1  UNL1        0.0051
      3 S         140.0840  139.6157  166.7955 S.2     1  UNL1       -0.0915
      4 C         139.9736  140.5481  167.9653 C.ar    1  UNL1        0.0288
      5 C         139.3155  140.4035  169.3054 C.ar    1  UNL1        0.0065
      6 C         139.3710  141.5306  170.2936 C.ar    1  UNL1        0.0005
      7 C         140.0844  142.8022  169.9417 C.ar    1  UNL1        0.0000
      8 C         140.7424  142.9469  168.6015 C.ar    1  UNL1        0.0002
      9 C         140.6870  141.8198  167.6133 C.ar    1  UNL1        0.0025
     10 C         143.5102  142.7998  165.6604 C.3     1  UNL1        0.0110
     11 C         142.0244  142.7074  165.4759 C.3     1  UNL1        0.0627
     12 C         141.3247  143.6492  164.5414 C.ar    1  UNL1        0.0629
     13 C         142.1177  144.4517  163.5527 C.ar    1  UNL1        0.0174
     14 C         141.4181  145.3935  162.6181 C.ar    1  UNL1        0.0325
     15 C         139.9255  145.5329  162.6721 C.ar    1  UNL1        0.1592
     16 F         139.2259  146.4747  161.7375 F       1  UNL1       -0.2025
     17 C         139.1326  144.7304  163.6607 C.ar    1  UNL1        0.1280
     18 N         139.8322  143.7886  164.5953 N.ar    1  UNL1       -0.2455
     19 C         141.2136  139.7438  164.3763 C.3     1  UNL1        0.0499
     20 C         142.2364  138.6523  164.2647 C.3     1  UNL1        0.0774
     21 N         143.5578  138.7887  164.9613 N.3     1  UNL1       -0.2700
     22 C         144.6884  139.5108  164.2902 C.3     1  UNL1        0.0897
     23 C         143.7487  138.2029  166.3289 C.3     1  UNL1        0.0897
@<TRIPOS>BOND
     1    11    10    1
     2    11    12    1
     3    12    13   ar
     4    13    14   ar
     5    14    15   ar
     6    15    16    1
     7    15    17   ar
     8    17    18   ar
     9    11     1    1
    10     1     2   ar
    11     2    19    1
    12    19    20    1
    13    20    21    1
    14    21    22    1
    15    21    23    1
    16     2     3   ar
    17     3     4   ar
    18     4     5   ar
    19     5     6   ar
    20     6     7   ar
    21     7     8   ar
    22     8     9   ar
    23    18    12   ar
    24     9     1   ar
    25     9     4   ar
