@<TRIPOS>MOLECULE
*****
 38 40 0 0 0
SMALL
GASTEIGER

@<TRIPOS>ATOM
      1 N         140.8637  144.0039  159.9799 N.am    1  UNL1       -0.2890
      2 C         140.6157  142.8660  160.9253 C.2     1  UNL1        0.3040
      3 O         140.8848  141.4563  160.4890 O.2     1  UNL1       -0.2526
      4 N         140.0987  143.1378  162.3068 N.am    1  UNL1       -0.2641
      5 C         139.8296  144.5476  162.7431 C.3     1  UNL1        0.0949
      6 C         139.3125  144.8194  164.1246 C.3     1  UNL1        0.0217
      7 C         139.0645  143.6815  165.0700 C.3     1  UNL1        0.0061
      8 C         139.3336  142.2718  164.6338 C.3     1  UNL1        0.0485
      9 C         139.8507  141.9999  163.2522 C.3     1  UNL1        0.0975
     10 H         140.6871  144.9292  160.2662 H       1  UNL1        0.1510
     11 C         139.0856  141.1339  165.5791 C.3     1  UNL1        0.1085
     12 O         137.7890  140.8396  164.8848 O.3     1  UNL1       -0.3826
     13 H         137.2713  141.6562  164.8070 H       1  UNL1        0.2107
     14 C         140.3822  141.4282  166.2735 C.ar    1  UNL1        0.0026
     15 C         141.6822  141.0589  165.6226 C.ar    1  UNL1       -0.0020
     16 C         142.9789  141.3532  166.3170 C.ar    1  UNL1        0.0006
     17 C         142.9755  142.0168  167.6622 C.ar    1  UNL1        0.0114
     18 C         141.6755  142.3861  168.3131 C.ar    1  UNL1        0.0574
     19 CL        141.6722  143.0497  169.6584 Cl      1  UNL1       -0.0823
     20 C         140.3789  142.0918  167.6188 C.ar    1  UNL1        0.0094
     21 C         138.8377  139.9960  166.5246 C.3     1  UNL1        0.0313
     22 C         138.2534  138.7117  166.0155 C.3     1  UNL1        0.0053
     23 C         139.1052  137.7603  165.2286 C.3     1  UNL1        0.0322
     24 C         138.9739  137.6949  163.7358 C.3     1  UNL1        0.1423
     25 O         138.3204  138.8206  162.9904 O.3     1  UNL1       -0.3511
     26 C         137.7626  138.5873  161.6176 C.3     1  UNL1        0.1741
     27 C         141.3807  143.7321  158.5983 C.3     1  UNL1        0.0887
     28 C         142.8540  143.7952  158.3230 C.3     1  UNL1        0.0884
     29 C         144.0546  142.4249  156.4708 C.3     1  UNL1        0.0859
     30 N         143.3596  143.6775  156.9157 N.3     1  UNL1       -0.2949
     31 H         142.5543  143.8012  156.3021 H       1  UNL1        0.1233
     32 C         140.4247  143.3971  157.4921 C.3     1  UNL1        0.0210
     33 C         139.7500  144.4959  156.7255 C.3     1  UNL1        0.0017
     34 C         140.2237  145.9117  156.8704 C.3     1  UNL1        0.0001
     35 C         139.5490  147.0104  156.1038 C.3     1  UNL1        0.0000
     36 C         138.4006  146.6933  155.1924 C.3     1  UNL1        0.0000
     37 C         137.9269  145.2774  155.0476 C.3     1  UNL1        0.0000
     38 C         138.6016  144.1788  155.8142 C.3     1  UNL1        0.0001
@<TRIPOS>BOND
     1    29    30    1
     2    30    28    1
     3    27    28    1
     4    27    32    1
     5    32    33    1
     6    33    34    1
     7    34    35    1
     8    35    36    1
     9    36    37    1
    10    37    38    1
    11    27     1    1
    12     1     2   am
    13     2     3    2
    14     2     4   am
    15     4     5    1
    16     5     6    1
    17     6     7    1
    18     8     7    1
    19     8    11    1
    20    11    12    1
    21    11    21    1
    22    21    22    1
    23    22    23    1
    24    23    24    1
    25    24    25    1
    26    25    26    1
    27    11    14    1
    28    14    15   ar
    29    15    16   ar
    30    16    17   ar
    31    17    18   ar
    32    18    19    1
    33    18    20   ar
    34     8     9    1
    35    38    33    1
    36     9     4    1
    37    20    14   ar
    38    30    31    1
    39     1    10    1
    40    12    13    1
@<TRIPOS>MOLECULE
*****
 38 40 0 0 0
SMALL
GASTEIGER

@<TRIPOS>ATOM
      1 N         140.0749  145.1195  159.6277 N.am    1  UNL1       -0.2890
      2 C         139.8515  143.7694  160.2421 C.2     1  UNL1        0.3040
      3 O         140.1068  142.5284  159.4391 O.2     1  UNL1       -0.2526
      4 N         139.3728  143.6603  161.6594 N.am    1  UNL1       -0.2641
      5 C         139.1176  144.9014  162.4624 C.3     1  UNL1        0.0949
      6 C         138.6389  144.7924  163.8798 C.3     1  UNL1        0.0217
      7 C         138.4155  143.4423  164.4942 C.3     1  UNL1        0.0061
      8 C         138.6707  142.2013  163.6912 C.3     1  UNL1        0.0485
      9 C         139.1494  142.3103  162.2739 C.3     1  UNL1        0.0975
     10 H         139.9074  145.9340  160.1547 H       1  UNL1        0.1510
     11 C         138.4473  140.8513  164.3057 C.3     1  UNL1        0.1085
     12 O         137.1746  140.7067  163.5251 O.3     1  UNL1       -0.3826
     13 H         136.6293  141.4997  163.6460 H       1  UNL1        0.2107
     14 C         139.7200  140.9959  165.0862 C.ar    1  UNL1        0.0026
     15 C         139.6734  141.1198  166.5804 C.ar    1  UNL1       -0.0020
     16 C         140.9462  141.2645  167.3610 C.ar    1  UNL1        0.0006
     17 C         142.2654  141.2852  166.6474 C.ar    1  UNL1        0.0114
     18 C         142.3119  141.1613  165.1532 C.ar    1  UNL1        0.0574
     19 CL        143.6312  141.1821  164.4397 Cl      1  UNL1       -0.0823
     20 C         141.0393  141.0167  164.3727 C.ar    1  UNL1        0.0094
     21 C         138.2239  139.5012  164.9201 C.3     1  UNL1        0.0313
     22 C         139.0285  138.3235  164.4560 C.3     1  UNL1        0.0053
     23 C         138.8446  137.7905  163.0660 C.3     1  UNL1        0.0322
     24 C         139.9032  138.0204  162.0284 C.3     1  UNL1        0.1423
     25 O         141.2111  137.2914  162.1169 O.3     1  UNL1       -0.3511
     26 C         142.4530  138.0261  162.5267 C.3     1  UNL1        0.1741
     27 C         140.5536  145.2285  158.2103 C.3     1  UNL1        0.0887
     28 C         142.0241  145.2528  157.9150 C.3     1  UNL1        0.0884
     29 C         143.3752  143.0595  157.5780 C.3     1  UNL1        0.0859
     30 N         142.9171  144.1799  158.4639 N.3     1  UNL1       -0.2949
     31 H         143.7570  144.6441  158.8096 H       1  UNL1        0.1233
     32 C         139.5619  145.3132  157.0881 C.3     1  UNL1        0.0210
     33 C         139.5986  146.4756  156.1408 C.3     1  UNL1        0.0017
     34 C         140.3278  146.3565  154.8354 C.3     1  UNL1        0.0001
     35 C         140.3645  147.5189  153.8881 C.3     1  UNL1        0.0000
     36 C         139.6721  148.8005  154.2462 C.3     1  UNL1        0.0000
     37 C         138.9430  148.9196  155.5516 C.3     1  UNL1        0.0000
     38 C         138.9063  147.7572  156.4989 C.3     1  UNL1        0.0001
@<TRIPOS>BOND
     1    29    30    1
     2    30    28    1
     3    27    28    1
     4    27    32    1
     5    32    33    1
     6    33    34    1
     7    34    35    1
     8    35    36    1
     9    36    37    1
    10    37    38    1
    11    27     1    1
    12     1     2   am
    13     2     3    2
    14     2     4   am
    15     4     5    1
    16     5     6    1
    17     6     7    1
    18     8     7    1
    19     8    11    1
    20    11    12    1
    21    11    21    1
    22    21    22    1
    23    22    23    1
    24    23    24    1
    25    24    25    1
    26    25    26    1
    27    11    14    1
    28    14    15   ar
    29    15    16   ar
    30    16    17   ar
    31    17    18   ar
    32    18    19    1
    33    18    20   ar
    34     8     9    1
    35    38    33    1
    36     9     4    1
    37    20    14   ar
    38    30    31    1
    39     1    10    1
    40    12    13    1
@<TRIPOS>MOLECULE
*****
 38 40 0 0 0
SMALL
GASTEIGER

@<TRIPOS>ATOM
      1 N         139.7557  144.3188  159.8274 N.am    1  UNL1       -0.2890
      2 C         139.7160  143.1039  160.7063 C.2     1  UNL1        0.3040
      3 O         140.0059  141.7504  160.1286 O.2     1  UNL1       -0.2526
      4 N         139.3863  143.2426  162.1631 N.am    1  UNL1       -0.2641
      5 C         139.0963  144.5962  162.7408 C.3     1  UNL1        0.0949
      6 C         138.7666  144.7349  164.1975 C.3     1  UNL1        0.0217
      7 C         138.7268  143.5200  165.0765 C.3     1  UNL1        0.0061
      8 C         139.0168  142.1665  164.4987 C.3     1  UNL1        0.0485
      9 C         139.3465  142.0278  163.0420 C.3     1  UNL1        0.0975
     10 H         139.5654  145.2072  160.2066 H       1  UNL1        0.1510
     11 C         138.9770  140.9517  165.3777 C.3     1  UNL1        0.1085
     12 O         137.6563  140.5637  164.7817 O.3     1  UNL1       -0.3826
     13 H         137.0535  141.3231  164.8093 H       1  UNL1        0.2107
     14 C         140.2977  141.3397  165.9737 C.ar    1  UNL1        0.0026
     15 C         141.5591  141.1622  165.1816 C.ar    1  UNL1       -0.0020
     16 C         142.8798  141.5503  165.7777 C.ar    1  UNL1        0.0006
     17 C         142.9390  142.1157  167.1658 C.ar    1  UNL1        0.0114
     18 C         141.6776  142.2931  167.9578 C.ar    1  UNL1        0.0574
     19 CL        141.7369  142.8585  169.3460 Cl      1  UNL1       -0.0823
     20 C         140.3570  141.9051  167.3618 C.ar    1  UNL1        0.0094
     21 C         138.9373  139.7368  166.2567 C.3     1  UNL1        0.0313
     22 C         138.6518  138.3897  165.6619 C.3     1  UNL1        0.0053
     23 C         139.6330  137.7650  164.7148 C.3     1  UNL1        0.0322
     24 C         139.3433  137.7401  163.2432 C.3     1  UNL1        0.1423
     25 O         138.1083  138.4043  162.7106 O.3     1  UNL1       -0.3511
     26 C         138.0904  138.9421  161.3104 C.3     1  UNL1        0.1741
     27 C         140.0854  144.1801  158.3706 C.3     1  UNL1        0.0887
     28 C         139.4842  143.0642  157.5685 C.3     1  UNL1        0.0884
     29 C         137.1382  142.6862  156.5182 C.3     1  UNL1        0.0859
     30 N         138.0305  142.7282  157.7231 N.3     1  UNL1       -0.2949
     31 H         137.9860  141.8051  158.1548 H       1  UNL1        0.1233
     32 C         141.0164  145.1572  157.7160 C.3     1  UNL1        0.0210
     33 C         140.5159  146.0518  156.6209 C.3     1  UNL1        0.0017
     34 C         139.4337  147.0510  156.9044 C.3     1  UNL1        0.0001
     35 C         138.9333  147.9455  155.8093 C.3     1  UNL1        0.0000
     36 C         139.5150  147.8408  154.4306 C.3     1  UNL1        0.0000
     37 C         140.5971  146.8416  154.1471 C.3     1  UNL1        0.0000
     38 C         141.0976  145.9471  155.2422 C.3     1  UNL1        0.0001
@<TRIPOS>BOND
     1    29    30    1
     2    30    28    1
     3    27    28    1
     4    27    32    1
     5    32    33    1
     6    33    34    1
     7    34    35    1
     8    35    36    1
     9    36    37    1
    10    37    38    1
    11    27     1    1
    12     1     2   am
    13     2     3    2
    14     2     4   am
    15     4     5    1
    16     5     6    1
    17     6     7    1
    18     8     7    1
    19     8    11    1
    20    11    12    1
    21    11    21    1
    22    21    22    1
    23    22    23    1
    24    23    24    1
    25    24    25    1
    26    25    26    1
    27    11    14    1
    28    14    15   ar
    29    15    16   ar
    30    16    17   ar
    31    17    18   ar
    32    18    19    1
    33    18    20   ar
    34     8     9    1
    35    38    33    1
    36     9     4    1
    37    20    14   ar
    38    30    31    1
    39     1    10    1
    40    12    13    1
@<TRIPOS>MOLECULE
*****
 38 40 0 0 0
SMALL
GASTEIGER

@<TRIPOS>ATOM
      1 N         139.7871  144.2312  160.8739 N.am    1  UNL1       -0.2890
      2 C         140.5378  143.2573  161.7331 C.2     1  UNL1        0.3040
      3 O         141.4998  142.2914  161.1073 O.2     1  UNL1       -0.2526
      4 N         140.3266  143.2494  163.2182 N.am    1  UNL1       -0.2641
      5 C         139.3646  144.2153  163.8440 C.3     1  UNL1        0.0949
      6 C         139.1533  144.2074  165.3290 C.3     1  UNL1        0.0217
      7 C         139.9040  143.2336  166.1882 C.3     1  UNL1        0.0061
      8 C         140.8659  142.2677  165.5624 C.3     1  UNL1        0.0485
      9 C         141.0772  142.2756  164.0773 C.3     1  UNL1        0.0975
     10 H         139.1558  144.8651  161.2847 H       1  UNL1        0.1510
     11 C         141.6166  141.2939  166.4215 C.3     1  UNL1        0.1085
     12 O         142.5084  142.4019  166.8980 O.3     1  UNL1       -0.3826
     13 H         142.8524  142.8912  166.1344 H       1  UNL1        0.2107
     14 C         140.7248  140.1860  165.9450 C.ar    1  UNL1        0.0026
     15 C         139.2732  140.1764  166.3231 C.ar    1  UNL1       -0.0020
     16 C         138.3814  139.0684  165.8466 C.ar    1  UNL1        0.0006
     17 C         138.9411  137.9701  164.9919 C.ar    1  UNL1        0.0114
     18 C         140.3926  137.9797  164.6138 C.ar    1  UNL1        0.0574
     19 CL        140.9523  136.8813  163.7591 Cl      1  UNL1       -0.0823
     20 C         141.2845  139.0876  165.0903 C.ar    1  UNL1        0.0094
     21 C         142.3673  140.3201  167.2807 C.3     1  UNL1        0.0313
     22 C         142.3640  140.4783  168.7723 C.3     1  UNL1        0.0053
     23 C         141.2145  139.9524  169.5798 C.3     1  UNL1        0.0322
     24 C         140.1102  140.8755  170.0022 C.3     1  UNL1        0.1423
     25 O         140.4362  142.1804  170.6663 O.3     1  UNL1       -0.3511
     26 C         140.4274  143.4507  169.8686 C.3     1  UNL1        0.1741
     27 C         139.9984  144.2391  159.3889 C.3     1  UNL1        0.0887
     28 C         139.2727  143.2525  158.5228 C.3     1  UNL1        0.0884
     29 C         138.6202  140.8862  159.3742 C.3     1  UNL1        0.0859
     30 N         139.5707  141.7873  158.6432 N.3     1  UNL1       -0.2949
     31 H         139.6495  141.4239  157.6934 H       1  UNL1        0.1233
     32 C         140.9353  145.2335  158.7700 C.3     1  UNL1        0.0210
     33 C         140.6739  145.7497  157.3860 C.3     1  UNL1        0.0017
     34 C         141.5316  145.2963  156.2420 C.3     1  UNL1        0.0001
     35 C         141.2701  145.8125  154.8581 C.3     1  UNL1        0.0000
     36 C         140.1511  146.7821  154.6183 C.3     1  UNL1        0.0000
     37 C         139.2934  147.2355  155.7623 C.3     1  UNL1        0.0000
     38 C         139.5549  146.7193  157.1461 C.3     1  UNL1        0.0001
@<TRIPOS>BOND
     1    29    30    1
     2    30    28    1
     3    27    28    1
     4    27    32    1
     5    32    33    1
     6    33    34    1
     7    34    35    1
     8    35    36    1
     9    36    37    1
    10    37    38    1
    11    27     1    1
    12     1     2   am
    13     2     3    2
    14     2     4   am
    15     4     5    1
    16     5     6    1
    17     6     7    1
    18     8     7    1
    19     8    11    1
    20    11    12    1
    21    11    21    1
    22    21    22    1
    23    22    23    1
    24    23    24    1
    25    24    25    1
    26    25    26    1
    27    11    14    1
    28    14    15   ar
    29    15    16   ar
    30    16    17   ar
    31    17    18   ar
    32    18    19    1
    33    18    20   ar
    34     8     9    1
    35    38    33    1
    36     9     4    1
    37    20    14   ar
    38    30    31    1
    39     1    10    1
    40    12    13    1
@<TRIPOS>MOLECULE
*****
 38 40 0 0 0
SMALL
GASTEIGER

@<TRIPOS>ATOM
      1 N         139.6891  144.2721  159.9810 N.am    1  UNL1       -0.2890
      2 C         139.9295  142.9345  160.6159 C.2     1  UNL1        0.3040
      3 O         140.8251  141.9358  159.9447 O.2     1  UNL1       -0.2526
      4 N         139.2743  142.5956  161.9220 N.am    1  UNL1       -0.2641
      5 C         138.3787  143.5943  162.5932 C.3     1  UNL1        0.0949
      6 C         137.7235  143.2555  163.8993 C.3     1  UNL1        0.0217
      7 C         137.9640  141.9178  164.5342 C.3     1  UNL1        0.0061
      8 C         138.8596  140.9192  163.8630 C.3     1  UNL1        0.0485
      9 C         139.5147  141.2581  162.5569 C.3     1  UNL1        0.0975
     10 H         139.1012  144.9276  160.4215 H       1  UNL1        0.1510
     11 C         139.1000  139.5816  164.4979 C.3     1  UNL1        0.1085
     12 O         138.4879  138.9062  163.3067 O.3     1  UNL1       -0.3826
     13 H         137.6292  139.3124  163.1104 H       1  UNL1        0.2107
     14 C         139.7120  140.2571  165.6891 C.ar    1  UNL1        0.0026
     15 C         140.8626  141.2020  165.5066 C.ar    1  UNL1       -0.0020
     16 C         141.4746  141.8775  166.6979 C.ar    1  UNL1        0.0006
     17 C         140.9361  141.6081  168.0717 C.ar    1  UNL1        0.0114
     18 C         139.7855  140.6632  168.2543 C.ar    1  UNL1        0.0574
     19 CL        139.2469  140.3938  169.6281 Cl      1  UNL1       -0.0823
     20 C         139.1735  139.9877  167.0630 C.ar    1  UNL1        0.0094
     21 C         139.3404  138.2441  165.1329 C.3     1  UNL1        0.0313
     22 C         140.3947  137.3307  164.5814 C.3     1  UNL1        0.0053
     23 C         141.6246  137.9045  163.9426 C.3     1  UNL1        0.0322
     24 C         141.7609  137.9098  162.4488 C.3     1  UNL1        0.1423
     25 O         140.5583  137.6700  161.5850 O.3     1  UNL1       -0.3511
     26 C         140.3906  138.4327  160.3043 C.3     1  UNL1        0.1741
     27 C         140.3442  144.6110  158.6749 C.3     1  UNL1        0.0887
     28 C         141.7748  145.0613  158.6480 C.3     1  UNL1        0.0884
     29 C         143.3334  143.2351  157.6554 C.3     1  UNL1        0.0859
     30 N         142.8793  144.0614  158.8220 N.3     1  UNL1       -0.2949
     31 H         143.6946  144.5778  159.1522 H       1  UNL1        0.1233
     32 C         139.5689  144.4995  157.3957 C.3     1  UNL1        0.0210
     33 C         139.8287  145.4620  156.2749 C.3     1  UNL1        0.0017
     34 C         140.6951  145.0531  155.1207 C.3     1  UNL1        0.0001
     35 C         140.9548  146.0156  154.0000 C.3     1  UNL1        0.0000
     36 C         140.3481  147.3870  154.0334 C.3     1  UNL1        0.0000
     37 C         139.4817  147.7959  155.1875 C.3     1  UNL1        0.0000
     38 C         139.2220  146.8334  156.3083 C.3     1  UNL1        0.0001
@<TRIPOS>BOND
     1    29    30    1
     2    30    28    1
     3    27    28    1
     4    27    32    1
     5    32    33    1
     6    33    34    1
     7    34    35    1
     8    35    36    1
     9    36    37    1
    10    37    38    1
    11    27     1    1
    12     1     2   am
    13     2     3    2
    14     2     4   am
    15     4     5    1
    16     5     6    1
    17     6     7    1
    18     8     7    1
    19     8    11    1
    20    11    12    1
    21    11    21    1
    22    21    22    1
    23    22    23    1
    24    23    24    1
    25    24    25    1
    26    25    26    1
    27    11    14    1
    28    14    15   ar
    29    15    16   ar
    30    16    17   ar
    31    17    18   ar
    32    18    19    1
    33    18    20   ar
    34     8     9    1
    35    38    33    1
    36     9     4    1
    37    20    14   ar
    38    30    31    1
    39     1    10    1
    40    12    13    1
@<TRIPOS>MOLECULE
*****
 38 40 0 0 0
SMALL
GASTEIGER

@<TRIPOS>ATOM
      1 N         139.8784  144.0679  160.9359 N.am    1  UNL1       -0.2890
      2 C         140.6364  143.1226  161.8202 C.2     1  UNL1        0.3040
      3 O         141.6147  142.1563  161.2209 O.2     1  UNL1       -0.2526
      4 N         140.4160  143.1437  163.3038 N.am    1  UNL1       -0.2641
      5 C         139.4377  144.1100  163.9030 C.3     1  UNL1        0.0949
      6 C         139.2173  144.1311  165.3866 C.3     1  UNL1        0.0217
      7 C         139.9753  143.1858  166.2709 C.3     1  UNL1        0.0061
      8 C         140.9536  142.2195  165.6717 C.3     1  UNL1        0.0485
      9 C         141.1740  142.1984  164.1881 C.3     1  UNL1        0.0975
     10 H         139.2363  144.7021  161.3292 H       1  UNL1        0.1510
     11 C         141.7115  141.2743  166.5560 C.3     1  UNL1        0.1085
     12 O         142.6085  142.3967  166.9869 O.3     1  UNL1       -0.3826
     13 H         142.9457  142.8598  166.2041 H       1  UNL1        0.2107
     14 C         140.8146  140.1519  166.1251 C.ar    1  UNL1        0.0026
     15 C         139.3823  140.1236  166.5696 C.ar    1  UNL1       -0.0020
     16 C         138.4853  139.0011  166.1386 C.ar    1  UNL1        0.0006
     17 C         139.0207  137.9071  165.2632 C.ar    1  UNL1        0.0114
     18 C         140.4530  137.9355  164.8187 C.ar    1  UNL1        0.0574
     19 CL        140.9884  136.8414  163.9432 Cl      1  UNL1       -0.0823
     20 C         141.3500  139.0578  165.2496 C.ar    1  UNL1        0.0094
     21 C         142.4695  140.3290  167.4403 C.3     1  UNL1        0.0313
     22 C         142.7335  140.6899  168.8721 C.3     1  UNL1        0.0053
     23 C         141.8528  140.1454  169.9574 C.3     1  UNL1        0.0322
     24 C         141.7537  140.8605  171.2723 C.3     1  UNL1        0.1423
     25 O         140.5190  141.6428  171.6094 O.3     1  UNL1       -0.3511
     26 C         139.9903  142.6622  170.6443 C.3     1  UNL1        0.1741
     27 C         140.0987  144.0468  159.4523 C.3     1  UNL1        0.0887
     28 C         141.2272  144.8307  158.8505 C.3     1  UNL1        0.0884
     29 C         143.1639  143.2940  158.0522 C.3     1  UNL1        0.0859
     30 N         142.6382  144.3410  158.9889 N.3     1  UNL1       -0.2949
     31 H         143.2438  145.1557  158.8896 H       1  UNL1        0.1233
     32 C         139.1907  143.2419  158.5706 C.3     1  UNL1        0.0210
     33 C         139.3395  141.7508  158.5026 C.3     1  UNL1        0.0017
     34 C         138.6883  140.8841  159.5393 C.3     1  UNL1        0.0001
     35 C         138.8371  139.3931  159.4713 C.3     1  UNL1        0.0000
     36 C         139.6371  138.7687  158.3666 C.3     1  UNL1        0.0000
     37 C         140.2883  139.6355  157.3300 C.3     1  UNL1        0.0000
     38 C         140.1395  141.1265  157.3980 C.3     1  UNL1        0.0001
@<TRIPOS>BOND
     1    29    30    1
     2    30    28    1
     3    27    28    1
     4    27    32    1
     5    32    33    1
     6    33    34    1
     7    34    35    1
     8    35    36    1
     9    36    37    1
    10    37    38    1
    11    27     1    1
    12     1     2   am
    13     2     3    2
    14     2     4   am
    15     4     5    1
    16     5     6    1
    17     6     7    1
    18     8     7    1
    19     8    11    1
    20    11    12    1
    21    11    21    1
    22    21    22    1
    23    22    23    1
    24    23    24    1
    25    24    25    1
    26    25    26    1
    27    11    14    1
    28    14    15   ar
    29    15    16   ar
    30    16    17   ar
    31    17    18   ar
    32    18    19    1
    33    18    20   ar
    34     8     9    1
    35    38    33    1
    36     9     4    1
    37    20    14   ar
    38    30    31    1
    39     1    10    1
    40    12    13    1
@<TRIPOS>MOLECULE
*****
 38 40 0 0 0
SMALL
GASTEIGER

@<TRIPOS>ATOM
      1 N         139.9261  144.5228  159.9528 N.am    1  UNL1       -0.2890
      2 C         139.8668  143.2954  160.8131 C.2     1  UNL1        0.3040
      3 O         140.1838  141.9520  160.2259 O.2     1  UNL1       -0.2526
      4 N         139.4906  143.4114  162.2605 N.am    1  UNL1       -0.2641
      5 C         139.1736  144.7549  162.8476 C.3     1  UNL1        0.0949
      6 C         138.7974  144.8709  164.2951 C.3     1  UNL1        0.0217
      7 C         138.7381  143.6434  165.1553 C.3     1  UNL1        0.0061
      8 C         139.0551  142.3001  164.5681 C.3     1  UNL1        0.0485
      9 C         139.4313  142.1840  163.1207 C.3     1  UNL1        0.0975
     10 H         139.7180  145.4046  160.3382 H       1  UNL1        0.1510
     11 C         138.9958  141.0727  165.4283 C.3     1  UNL1        0.1085
     12 O         137.6718  140.7121  164.8226 O.3     1  UNL1       -0.3826
     13 H         137.0794  141.4793  164.8600 H       1  UNL1        0.2107
     14 C         140.3198  141.4333  166.0341 C.ar    1  UNL1        0.0026
     15 C         140.3948  141.8711  167.4668 C.ar    1  UNL1       -0.0020
     16 C         141.7189  142.2317  168.0725 C.ar    1  UNL1        0.0006
     17 C         142.9679  142.1545  167.2455 C.ar    1  UNL1        0.0114
     18 C         142.8929  141.7167  165.8128 C.ar    1  UNL1        0.0574
     19 CL        144.1420  141.6395  164.9858 Cl      1  UNL1       -0.0823
     20 C         141.5689  141.3561  165.2070 C.ar    1  UNL1        0.0094
     21 C         138.9366  139.8453  166.2886 C.3     1  UNL1        0.0313
     22 C         138.4646  138.5450  165.7087 C.3     1  UNL1        0.0053
     23 C         139.4159  137.6782  164.9382 C.3     1  UNL1        0.0322
     24 C         139.4754  137.7751  163.4425 C.3     1  UNL1        0.1423
     25 O         138.6752  138.8223  162.7263 O.3     1  UNL1       -0.3511
     26 C         137.6962  138.4213  161.6628 C.3     1  UNL1        0.1741
     27 C         140.3023  144.4068  158.5054 C.3     1  UNL1        0.0887
     28 C         139.3049  143.8922  157.5102 C.3     1  UNL1        0.0884
     29 C         137.7935  141.7806  157.5874 C.3     1  UNL1        0.0859
     30 N         139.1266  142.4148  157.3223 N.3     1  UNL1       -0.2949
     31 H         139.3617  142.2110  156.3509 H       1  UNL1        0.1233
     32 C         141.6758  144.8053  158.0533 C.3     1  UNL1        0.0210
     33 C         142.7215  143.7561  157.8170 C.3     1  UNL1        0.0017
     34 C         143.0536  143.3300  156.4177 C.3     1  UNL1        0.0001
     35 C         144.0993  142.2808  156.1814 C.3     1  UNL1        0.0000
     36 C         144.8128  141.6578  157.3445 C.3     1  UNL1        0.0000
     37 C         144.4807  142.0840  158.7438 C.3     1  UNL1        0.0000
     38 C         143.4351  143.1331  158.9800 C.3     1  UNL1        0.0001
@<TRIPOS>BOND
     1    29    30    1
     2    30    28    1
     3    27    28    1
     4    27    32    1
     5    32    33    1
     6    33    34    1
     7    34    35    1
     8    35    36    1
     9    36    37    1
    10    37    38    1
    11    27     1    1
    12     1     2   am
    13     2     3    2
    14     2     4   am
    15     4     5    1
    16     5     6    1
    17     6     7    1
    18     8     7    1
    19     8    11    1
    20    11    12    1
    21    11    21    1
    22    21    22    1
    23    22    23    1
    24    23    24    1
    25    24    25    1
    26    25    26    1
    27    11    14    1
    28    14    15   ar
    29    15    16   ar
    30    16    17   ar
    31    17    18   ar
    32    18    19    1
    33    18    20   ar
    34     8     9    1
    35    38    33    1
    36     9     4    1
    37    20    14   ar
    38    30    31    1
    39     1    10    1
    40    12    13    1
@<TRIPOS>MOLECULE
*****
 38 40 0 0 0
SMALL
GASTEIGER

@<TRIPOS>ATOM
      1 N         142.4456  139.4983  159.6769 N.am    1  UNL1       -0.2890
      2 C         141.6767  140.4919  160.4966 C.2     1  UNL1        0.3040
      3 O         140.6836  141.4010  159.8355 O.2     1  UNL1       -0.2526
      4 N         141.9010  140.5762  161.9773 N.am    1  UNL1       -0.2641
      5 C         142.8942  139.6670  162.6384 C.3     1  UNL1        0.0949
      6 C         143.1185  139.7513  164.1191 C.3     1  UNL1        0.0217
      7 C         142.3495  140.7449  164.9388 C.3     1  UNL1        0.0061
      8 C         141.3564  141.6540  164.2777 C.3     1  UNL1        0.0485
      9 C         141.1321  141.5697  162.7969 C.3     1  UNL1        0.0975
     10 H         143.0975  138.9016  160.1108 H       1  UNL1        0.1510
     11 C         140.5876  142.6475  165.0973 C.3     1  UNL1        0.1085
     12 O         141.2647  143.7713  164.3703 O.3     1  UNL1       -0.3826
     13 H         142.2241  143.6287  164.3764 H       1  UNL1        0.2107
     14 C         139.9105  141.5237  165.8243 C.ar    1  UNL1        0.0026
     15 C         138.9174  140.6574  165.1078 C.ar    1  UNL1       -0.0020
     16 C         138.2403  139.5335  165.8349 C.ar    1  UNL1        0.0006
     17 C         138.5563  139.2760  167.2784 C.ar    1  UNL1        0.0114
     18 C         139.5493  140.1423  167.9949 C.ar    1  UNL1        0.0574
     19 CL        139.8653  139.8847  169.4385 Cl      1  UNL1       -0.0823
     20 C         140.2264  141.2661  167.2679 C.ar    1  UNL1        0.0094
     21 C         139.8187  143.6410  165.9170 C.3     1  UNL1        0.0313
     22 C         138.9045  144.6213  165.2438 C.3     1  UNL1        0.0053
     23 C         137.8873  144.1394  164.2524 C.3     1  UNL1        0.0322
     24 C         138.1917  144.1829  162.7842 C.3     1  UNL1        0.1423
     25 O         138.3993  145.5015  162.1000 O.3     1  UNL1       -0.3511
     26 C         139.7884  145.9746  161.7889 C.3     1  UNL1        0.1741
     27 C         142.2213  139.4140  158.1962 C.3     1  UNL1        0.0887
     28 C         143.0514  140.2453  157.2634 C.3     1  UNL1        0.0884
     29 C         145.0720  139.9207  155.6629 C.3     1  UNL1        0.0859
     30 N         144.4983  139.9131  157.0488 N.3     1  UNL1       -0.2949
     31 H         145.0386  140.5841  157.5948 H       1  UNL1        0.1233
     32 C         141.1671  138.4985  157.6482 C.3     1  UNL1        0.0210
     33 C         141.5634  137.2347  156.9441 C.3     1  UNL1        0.0017
     34 C         140.6925  136.6767  155.8578 C.3     1  UNL1        0.0001
     35 C         141.0889  135.4129  155.1536 C.3     1  UNL1        0.0000
     36 C         142.3561  134.7072  155.5358 C.3     1  UNL1        0.0000
     37 C         143.2270  135.2653  156.6222 C.3     1  UNL1        0.0000
     38 C         142.8306  136.5290  157.3263 C.3     1  UNL1        0.0001
@<TRIPOS>BOND
     1    29    30    1
     2    30    28    1
     3    27    28    1
     4    27    32    1
     5    32    33    1
     6    33    34    1
     7    34    35    1
     8    35    36    1
     9    36    37    1
    10    37    38    1
    11    27     1    1
    12     1     2   am
    13     2     3    2
    14     2     4   am
    15     4     5    1
    16     5     6    1
    17     6     7    1
    18     8     7    1
    19     8    11    1
    20    11    12    1
    21    11    21    1
    22    21    22    1
    23    22    23    1
    24    23    24    1
    25    24    25    1
    26    25    26    1
    27    11    14    1
    28    14    15   ar
    29    15    16   ar
    30    16    17   ar
    31    17    18   ar
    32    18    19    1
    33    18    20   ar
    34     8     9    1
    35    38    33    1
    36     9     4    1
    37    20    14   ar
    38    30    31    1
    39     1    10    1
    40    12    13    1
@<TRIPOS>MOLECULE
*****
 38 40 0 0 0
SMALL
GASTEIGER

@<TRIPOS>ATOM
      1 N         139.8220  144.3366  160.7312 N.am    1  UNL1       -0.2890
      2 C         140.5872  143.3332  161.5424 C.2     1  UNL1        0.3040
      3 O         141.5409  142.3931  160.8667 O.2     1  UNL1       -0.2526
      4 N         140.3986  143.2701  163.0291 N.am    1  UNL1       -0.2641
      5 C         139.4448  144.2103  163.7047 C.3     1  UNL1        0.0949
      6 C         139.2562  144.1472  165.1915 C.3     1  UNL1        0.0217
      7 C         140.0214  143.1439  166.0026 C.3     1  UNL1        0.0061
      8 C         140.9751  142.2037  165.3270 C.3     1  UNL1        0.0485
      9 C         141.1637  142.2668  163.8403 C.3     1  UNL1        0.0975
     10 H         139.1960  144.9536  161.1747 H       1  UNL1        0.1510
     11 C         141.7403  141.2005  166.1382 C.3     1  UNL1        0.1085
     12 O         142.9233  142.1223  166.1624 O.3     1  UNL1       -0.3826
     13 H         143.1228  142.4161  165.2597 H       1  UNL1        0.2107
     14 C         140.5572  140.2787  166.1139 C.ar    1  UNL1        0.0026
     15 C         139.6688  140.1668  167.3174 C.ar    1  UNL1       -0.0020
     16 C         138.4857  139.2449  167.2931 C.ar    1  UNL1        0.0006
     17 C         138.1911  138.4350  166.0655 C.ar    1  UNL1        0.0114
     18 C         139.0795  138.5468  164.8620 C.ar    1  UNL1        0.0574
     19 CL        138.7848  137.7368  163.6344 Cl      1  UNL1       -0.0823
     20 C         140.2625  139.4687  164.8863 C.ar    1  UNL1        0.0094
     21 C         142.5054  140.1971  166.9493 C.3     1  UNL1        0.0313
     22 C         142.9545  138.9109  166.3217 C.3     1  UNL1        0.0053
     23 C         144.2779  138.8414  165.6191 C.3     1  UNL1        0.0322
     24 C         144.5016  139.6277  164.3614 C.3     1  UNL1        0.1423
     25 O         144.9293  141.0632  164.4405 O.3     1  UNL1       -0.3511
     26 C         145.6805  141.6859  163.3011 C.3     1  UNL1        0.1741
     27 C         140.0105  144.3997  159.2445 C.3     1  UNL1        0.0887
     28 C         139.3562  143.3787  158.3614 C.3     1  UNL1        0.0884
     29 C         141.2322  141.8773  157.3736 C.3     1  UNL1        0.0859
     30 N         139.9812  142.0263  158.1878 N.3     1  UNL1       -0.2949
     31 H         140.1951  141.6785  159.1225 H       1  UNL1        0.1233
     32 C         140.8534  145.4836  158.6407 C.3     1  UNL1        0.0210
     33 C         140.6192  145.9139  157.2229 C.3     1  UNL1        0.0017
     34 C         141.5144  145.4118  156.1291 C.3     1  UNL1        0.0001
     35 C         141.2801  145.8422  154.7114 C.3     1  UNL1        0.0000
     36 C         140.1506  146.7746  154.3875 C.3     1  UNL1        0.0000
     37 C         139.2555  147.2767  155.4814 C.3     1  UNL1        0.0000
     38 C         139.4897  146.8464  156.8990 C.3     1  UNL1        0.0001
@<TRIPOS>BOND
     1    29    30    1
     2    30    28    1
     3    27    28    1
     4    27    32    1
     5    32    33    1
     6    33    34    1
     7    34    35    1
     8    35    36    1
     9    36    37    1
    10    37    38    1
    11    27     1    1
    12     1     2   am
    13     2     3    2
    14     2     4   am
    15     4     5    1
    16     5     6    1
    17     6     7    1
    18     8     7    1
    19     8    11    1
    20    11    12    1
    21    11    21    1
    22    21    22    1
    23    22    23    1
    24    23    24    1
    25    24    25    1
    26    25    26    1
    27    11    14    1
    28    14    15   ar
    29    15    16   ar
    30    16    17   ar
    31    17    18   ar
    32    18    19    1
    33    18    20   ar
    34     8     9    1
    35    38    33    1
    36     9     4    1
    37    20    14   ar
    38    30    31    1
    39     1    10    1
    40    12    13    1
