@<TRIPOS>MOLECULE
*****
 34 37 0 0 0
SMALL
GASTEIGER

@<TRIPOS>ATOM
      1 N         138.1403  139.8725  163.4055 N.3     1  UNL1       -0.2698
      2 N         140.1030  139.8762  167.4550 N.pl3   1  UNL1       -0.2769
      3 C         140.8117  140.4771  166.2775 C.3     1  UNL1        0.0950
      4 C         140.1575  140.4759  164.9277 C.3     1  UNL1        0.0375
      5 C         138.7945  139.8737  164.7554 C.3     1  UNL1        0.0612
      6 C         138.0858  139.2727  165.9329 C.3     1  UNL1        0.0375
      7 C         138.7400  139.2740  167.2827 C.3     1  UNL1        0.0950
      8 N         143.7571  139.7529  171.2646 N.pl3   1  UNL1       -0.3278
      9 C         142.4369  139.8207  170.5559 C.ar    1  UNL1        0.2099
     10 N         142.2305  139.7834  169.0706 N.ar    1  UNL1       -0.1804
     11 C         140.7572  139.8774  168.8048 C.ar    1  UNL1        0.2395
     12 N         140.0530  139.9728  170.1258 N.ar    1  UNL1       -0.1349
     13 N         141.0911  139.9377  171.2080 N.ar    1  UNL1       -0.2453
     14 H         144.5907  139.6764  170.7463 H       1  UNL1        0.1451
     15 H         143.7901  139.7848  172.2480 H       1  UNL1        0.1451
     16 H         140.9193  139.9835  172.1763 H       1  UNL1        0.1919
     17 C         138.2309  138.6585  162.5293 C.3     1  UNL1        0.0770
     18 C         139.3600  138.5220  161.5512 C.3     1  UNL1        0.0437
     19 C         140.7448  138.9473  161.9403 C.ar    1  UNL1       -0.0207
     20 C         141.2631  140.2904  161.5190 C.ar    1  UNL1       -0.0034
     21 C         142.6479  140.7157  161.9080 C.ar    1  UNL1        0.0111
     22 C         143.5145  139.7980  162.7185 C.ar    1  UNL1        0.0577
     23 CL        144.8992  140.2233  163.1076 Cl      1  UNL1       -0.0822
     24 C         142.9962  138.4549  163.1399 C.ar    1  UNL1        0.0111
     25 C         141.6113  138.0296  162.7507 C.ar    1  UNL1       -0.0034
     26 C         137.3955  141.0854  162.9320 C.3     1  UNL1        0.1014
     27 C         138.0237  142.4428  163.0449 C.ar    1  UNL1        0.0236
     28 C         137.9117  143.2170  164.3248 C.ar    1  UNL1        0.0289
     29 C         138.5399  144.5744  164.4377 C.ar    1  UNL1        0.1400
     30 F         138.4279  145.3485  165.7176 F       1  UNL1       -0.2042
     31 C         139.2801  145.1577  163.2707 C.ar    1  UNL1        0.0319
     32 C         139.3921  144.3835  161.9908 C.ar    1  UNL1        0.0317
     33 C         138.7638  143.0261  161.8779 C.ar    1  UNL1        0.1376
     34 F         138.8758  142.2519  160.5980 F       1  UNL1       -0.2045
@<TRIPOS>BOND
     1     8     9    1
     2     9    10   ar
     3    10    11   ar
     4    11     2    1
     5     2     3    1
     6     3     4    1
     7     4     5    1
     8     5     1    1
     9     1    17    1
    10    17    18    1
    11    18    19    1
    12    19    20   ar
    13    20    21   ar
    14    21    22   ar
    15    22    23    1
    16    22    24   ar
    17    24    25   ar
    18     1    26    1
    19    26    27    1
    20    27    28   ar
    21    28    29   ar
    22    29    30    1
    23    29    31   ar
    24    31    32   ar
    25    32    33   ar
    26    33    34    1
    27     5     6    1
    28     6     7    1
    29    11    12   ar
    30    12    13   ar
    31    13     9   ar
    32     7     2    1
    33    25    19   ar
    34    33    27   ar
    35     8    14    1
    36     8    15    1
    37    13    16    1
@<TRIPOS>MOLECULE
*****
 34 37 0 0 0
SMALL
GASTEIGER

@<TRIPOS>ATOM
      1 N         137.9090  140.3300  163.2993 N.3     1  UNL1       -0.2698
      2 N         139.4562  140.2301  167.5238 N.pl3   1  UNL1       -0.2769
      3 C         138.5093  139.1692  167.0466 C.3     1  UNL1        0.0950
      4 C         137.9936  139.2025  165.6385 C.3     1  UNL1        0.0375
      5 C         138.4248  140.2967  164.7075 C.3     1  UNL1        0.0612
      6 C         139.3717  141.3577  165.1847 C.3     1  UNL1        0.0375
      7 C         139.8874  141.3244  166.5928 C.3     1  UNL1        0.0950
      8 N         142.6985  140.3727  171.6890 N.pl3   1  UNL1       -0.3278
      9 C         141.4624  140.2624  170.8465 C.ar    1  UNL1        0.2099
     10 N         141.4023  140.3662  169.3513 N.ar    1  UNL1       -0.1804
     11 C         139.9720  140.1969  168.9320 C.ar    1  UNL1        0.2395
     12 N         139.1482  139.9885  170.1680 N.ar    1  UNL1       -0.1349
     13 N         140.0692  140.0290  171.3513 N.ar    1  UNL1       -0.2453
     14 H         143.5724  140.5274  171.2629 H       1  UNL1        0.1451
     15 H         142.6359  140.2905  172.6680 H       1  UNL1        0.1451
     16 H         139.8057  139.9213  172.2937 H       1  UNL1        0.1919
     17 C         138.0139  139.1099  162.4332 C.3     1  UNL1        0.0770
     18 C         139.3190  138.7642  161.7794 C.3     1  UNL1        0.0437
     19 C         140.6021  138.9110  162.5422 C.ar    1  UNL1       -0.0207
     20 C         140.9725  137.9016  163.5882 C.ar    1  UNL1       -0.0034
     21 C         142.2556  138.0485  164.3510 C.ar    1  UNL1        0.0111
     22 C         143.1684  139.2047  164.0680 C.ar    1  UNL1        0.0577
     23 CL        144.4515  139.3516  164.8308 Cl      1  UNL1       -0.0822
     24 C         142.7980  140.2141  163.0220 C.ar    1  UNL1        0.0111
     25 C         141.5148  140.0672  162.2592 C.ar    1  UNL1       -0.0034
     26 C         137.2883  141.5834  162.7574 C.3     1  UNL1        0.1014
     27 C         138.1604  142.6952  162.2542 C.ar    1  UNL1        0.0236
     28 C         138.9627  142.5103  161.0003 C.ar    1  UNL1        0.0289
     29 C         139.8347  143.6222  160.4971 C.ar    1  UNL1        0.1400
     30 F         140.6370  143.4372  159.2433 F       1  UNL1       -0.2042
     31 C         139.9046  144.9189  161.2478 C.ar    1  UNL1        0.0319
     32 C         139.1024  145.1039  162.5016 C.ar    1  UNL1        0.0317
     33 C         138.2302  143.9920  163.0049 C.ar    1  UNL1        0.1376
     34 F         137.4280  144.1770  164.2587 F       1  UNL1       -0.2045
@<TRIPOS>BOND
     1     8     9    1
     2     9    10   ar
     3    10    11   ar
     4    11     2    1
     5     2     3    1
     6     3     4    1
     7     4     5    1
     8     5     1    1
     9     1    17    1
    10    17    18    1
    11    18    19    1
    12    19    20   ar
    13    20    21   ar
    14    21    22   ar
    15    22    23    1
    16    22    24   ar
    17    24    25   ar
    18     1    26    1
    19    26    27    1
    20    27    28   ar
    21    28    29   ar
    22    29    30    1
    23    29    31   ar
    24    31    32   ar
    25    32    33   ar
    26    33    34    1
    27     5     6    1
    28     6     7    1
    29    11    12   ar
    30    12    13   ar
    31    13     9   ar
    32     7     2    1
    33    25    19   ar
    34    33    27   ar
    35     8    14    1
    36     8    15    1
    37    13    16    1
@<TRIPOS>MOLECULE
*****
 34 37 0 0 0
SMALL
GASTEIGER

@<TRIPOS>ATOM
      1 N         138.0173  140.2902  163.2349 N.3     1  UNL1       -0.2698
      2 N         139.5015  140.1531  167.4808 N.pl3   1  UNL1       -0.2769
      3 C         139.9256  141.2700  166.5738 C.3     1  UNL1        0.0950
      4 C         139.4308  141.3156  165.1585 C.3     1  UNL1        0.0375
      5 C         138.5120  140.2445  164.6503 C.3     1  UNL1        0.0612
      6 C         138.0879  139.1276  165.5573 C.3     1  UNL1        0.0375
      7 C         138.5827  139.0819  166.9725 C.3     1  UNL1        0.0950
      8 N         142.6545  140.4026  171.7090 N.pl3   1  UNL1       -0.3278
      9 C         141.4455  140.2221  170.8397 C.ar    1  UNL1        0.2099
     10 N         141.4001  140.3799  169.3487 N.ar    1  UNL1       -0.1804
     11 C         139.9962  140.1073  168.8962 C.ar    1  UNL1        0.2395
     12 N         139.1739  139.7810  170.1075 N.ar    1  UNL1       -0.1349
     13 N         140.0696  139.8519  171.3087 N.ar    1  UNL1       -0.2453
     14 H         143.5186  140.6474  171.3058 H       1  UNL1        0.1451
     15 H         142.5838  140.2764  172.6828 H       1  UNL1        0.1451
     16 H         139.8015  139.6848  172.2411 H       1  UNL1        0.1919
     17 C         138.1095  139.0694  162.3683 C.3     1  UNL1        0.0770
     18 C         139.3564  138.8029  161.5781 C.3     1  UNL1        0.0437
     19 C         140.7010  139.0767  162.1838 C.ar    1  UNL1       -0.0207
     20 C         141.3032  138.0972  163.1471 C.ar    1  UNL1       -0.0034
     21 C         142.6479  138.3710  163.7528 C.ar    1  UNL1        0.0111
     22 C         143.3904  139.6244  163.3952 C.ar    1  UNL1        0.0577
     23 CL        144.7350  139.8982  164.0010 Cl      1  UNL1       -0.0822
     24 C         142.7882  140.6039  162.4320 C.ar    1  UNL1        0.0111
     25 C         141.4435  140.3300  161.8262 C.ar    1  UNL1       -0.0034
     26 C         137.4304  141.5569  162.6861 C.3     1  UNL1        0.1014
     27 C         138.2947  142.5134  161.9195 C.ar    1  UNL1        0.0236
     28 C         138.8901  143.7047  162.6097 C.ar    1  UNL1        0.0289
     29 C         139.7545  144.6613  161.8430 C.ar    1  UNL1        0.1400
     30 F         140.3498  145.8526  162.5332 F       1  UNL1       -0.2042
     31 C         140.0235  144.4266  160.3861 C.ar    1  UNL1        0.0319
     32 C         139.4282  143.2354  159.6959 C.ar    1  UNL1        0.0317
     33 C         138.5638  142.2787  160.4626 C.ar    1  UNL1        0.1376
     34 F         137.9684  141.0875  159.7723 F       1  UNL1       -0.2045
@<TRIPOS>BOND
     1     8     9    1
     2     9    10   ar
     3    10    11   ar
     4    11     2    1
     5     2     3    1
     6     3     4    1
     7     4     5    1
     8     5     1    1
     9     1    17    1
    10    17    18    1
    11    18    19    1
    12    19    20   ar
    13    20    21   ar
    14    21    22   ar
    15    22    23    1
    16    22    24   ar
    17    24    25   ar
    18     1    26    1
    19    26    27    1
    20    27    28   ar
    21    28    29   ar
    22    29    30    1
    23    29    31   ar
    24    31    32   ar
    25    32    33   ar
    26    33    34    1
    27     5     6    1
    28     6     7    1
    29    11    12   ar
    30    12    13   ar
    31    13     9   ar
    32     7     2    1
    33    25    19   ar
    34    33    27   ar
    35     8    14    1
    36     8    15    1
    37    13    16    1
@<TRIPOS>MOLECULE
*****
 34 37 0 0 0
SMALL
GASTEIGER

@<TRIPOS>ATOM
      1 N         137.9592  140.3023  163.2109 N.3     1  UNL1       -0.2698
      2 N         139.4549  140.1653  167.4528 N.pl3   1  UNL1       -0.2769
      3 C         138.5271  139.0993  166.9499 C.3     1  UNL1        0.0950
      4 C         138.0286  139.1450  165.5360 C.3     1  UNL1        0.0375
      5 C         138.4578  140.2567  164.6249 C.3     1  UNL1        0.0612
      6 C         139.3856  141.3226  165.1278 C.3     1  UNL1        0.0375
      7 C         139.8841  141.2769  166.5417 C.3     1  UNL1        0.0950
      8 N         142.5942  140.5118  171.6843 N.pl3   1  UNL1       -0.3278
      9 C         141.3965  140.2789  170.8118 C.ar    1  UNL1        0.2099
     10 N         141.3399  140.4641  169.3244 N.ar    1  UNL1       -0.1804
     11 C         139.9535  140.1196  168.8668 C.ar    1  UNL1        0.2395
     12 N         139.1533  139.7215  170.0714 N.ar    1  UNL1       -0.1349
     13 N         140.0451  139.8199  171.2735 N.ar    1  UNL1       -0.2453
     14 H         143.4421  140.8145  171.2859 H       1  UNL1        0.1451
     15 H         142.5324  140.3619  172.6554 H       1  UNL1        0.1451
     16 H         139.7885  139.6186  172.2024 H       1  UNL1        0.1919
     17 C         137.3154  141.5498  162.6825 C.3     1  UNL1        0.0770
     18 C         138.0644  142.4352  161.7310 C.3     1  UNL1        0.0437
     19 C         139.3245  143.1171  162.1750 C.ar    1  UNL1       -0.0207
     20 C         140.6588  142.5174  161.8431 C.ar    1  UNL1       -0.0034
     21 C         141.9188  143.1993  162.2871 C.ar    1  UNL1        0.0111
     22 C         141.8447  144.4810  163.0630 C.ar    1  UNL1        0.0577
     23 CL        143.1047  145.1629  163.5070 Cl      1  UNL1       -0.0822
     24 C         140.5104  145.0807  163.3948 C.ar    1  UNL1        0.0111
     25 C         139.2503  144.3987  162.9508 C.ar    1  UNL1       -0.0034
     26 C         138.1043  139.1004  162.3253 C.3     1  UNL1        0.1014
     27 C         139.4123  138.8234  161.6453 C.ar    1  UNL1        0.0236
     28 C         139.6604  139.3380  160.2583 C.ar    1  UNL1        0.0289
     29 C         140.9684  139.0610  159.5784 C.ar    1  UNL1        0.1400
     30 F         141.2165  139.5756  158.1915 F       1  UNL1       -0.2042
     31 C         142.0284  138.2693  160.2854 C.ar    1  UNL1        0.0319
     32 C         141.7803  137.7547  161.6723 C.ar    1  UNL1        0.0317
     33 C         140.4723  138.0317  162.3523 C.ar    1  UNL1        0.1376
     34 F         140.2242  137.5171  163.7392 F       1  UNL1       -0.2045
@<TRIPOS>BOND
     1     8     9    1
     2     9    10   ar
     3    10    11   ar
     4    11     2    1
     5     2     3    1
     6     3     4    1
     7     4     5    1
     8     5     1    1
     9     1    17    1
    10    17    18    1
    11    18    19    1
    12    19    20   ar
    13    20    21   ar
    14    21    22   ar
    15    22    23    1
    16    22    24   ar
    17    24    25   ar
    18     1    26    1
    19    26    27    1
    20    27    28   ar
    21    28    29   ar
    22    29    30    1
    23    29    31   ar
    24    31    32   ar
    25    32    33   ar
    26    33    34    1
    27     5     6    1
    28     6     7    1
    29    11    12   ar
    30    12    13   ar
    31    13     9   ar
    32     7     2    1
    33    25    19   ar
    34    33    27   ar
    35     8    14    1
    36     8    15    1
    37    13    16    1
@<TRIPOS>MOLECULE
*****
 34 37 0 0 0
SMALL
GASTEIGER

@<TRIPOS>ATOM
      1 N         138.3703  142.9590  163.5390 N.3     1  UNL1       -0.2698
      2 N         140.1313  144.8348  159.8471 N.pl3   1  UNL1       -0.2769
      3 C         139.9839  145.6435  161.1018 C.3     1  UNL1        0.0950
      4 C         139.3969  145.0182  162.3324 C.3     1  UNL1        0.0375
      5 C         138.9573  143.5843  162.3083 C.3     1  UNL1        0.0612
      6 C         139.1048  142.7756  161.0536 C.3     1  UNL1        0.0375
      7 C         139.6918  143.4009  159.8230 C.3     1  UNL1        0.0950
      8 N         140.5957  147.1677  155.1330 N.pl3   1  UNL1       -0.3278
      9 C         140.9317  146.5324  156.4495 C.ar    1  UNL1        0.2099
     10 N         139.9472  146.0058  157.4512 N.ar    1  UNL1       -0.1804
     11 C         140.7183  145.4601  158.6164 C.ar    1  UNL1        0.2395
     12 N         142.1794  145.6494  158.3348 N.ar    1  UNL1       -0.1349
     13 N         142.3114  146.3121  156.9956 N.ar    1  UNL1       -0.2453
     14 H         139.6549  147.2686  154.8609 H       1  UNL1        0.1451
     15 H         141.3159  147.4838  154.5408 H       1  UNL1        0.1451
     16 H         143.1553  146.5591  156.5529 H       1  UNL1        0.1919
     17 C         138.6461  143.5551  164.8875 C.3     1  UNL1        0.0770
     18 C         140.0394  143.5411  165.4431 C.3     1  UNL1        0.0437
     19 C         140.7663  142.2400  165.6121 C.ar    1  UNL1       -0.0207
     20 C         140.8962  141.6248  166.9740 C.ar    1  UNL1       -0.0034
     21 C         141.6232  140.3237  167.1430 C.ar    1  UNL1        0.0111
     22 C         142.2203  139.6377  165.9501 C.ar    1  UNL1        0.0577
     23 CL        142.9472  138.3365  166.1191 Cl      1  UNL1       -0.0822
     24 C         142.0904  140.2528  164.5882 C.ar    1  UNL1        0.0111
     25 C         141.3634  141.5540  164.4192 C.ar    1  UNL1       -0.0034
     26 C         137.5076  141.7376  163.4211 C.3     1  UNL1        0.1014
     27 C         137.9881  140.4246  163.9642 C.ar    1  UNL1        0.0236
     28 C         137.9461  140.1632  165.4407 C.ar    1  UNL1        0.0289
     29 C         138.4266  138.8502  165.9839 C.ar    1  UNL1        0.1400
     30 F         138.3846  138.5888  167.4603 F       1  UNL1       -0.2042
     31 C         138.9493  137.7986  165.0506 C.ar    1  UNL1        0.0319
     32 C         138.9914  138.0600  163.5742 C.ar    1  UNL1        0.0317
     33 C         138.5108  139.3730  163.0310 C.ar    1  UNL1        0.1376
     34 F         138.5529  139.6344  161.5545 F       1  UNL1       -0.2045
@<TRIPOS>BOND
     1     8     9    1
     2     9    10   ar
     3    10    11   ar
     4    11     2    1
     5     2     3    1
     6     3     4    1
     7     4     5    1
     8     5     1    1
     9     1    17    1
    10    17    18    1
    11    18    19    1
    12    19    20   ar
    13    20    21   ar
    14    21    22   ar
    15    22    23    1
    16    22    24   ar
    17    24    25   ar
    18     1    26    1
    19    26    27    1
    20    27    28   ar
    21    28    29   ar
    22    29    30    1
    23    29    31   ar
    24    31    32   ar
    25    32    33   ar
    26    33    34    1
    27     5     6    1
    28     6     7    1
    29    11    12   ar
    30    12    13   ar
    31    13     9   ar
    32     7     2    1
    33    25    19   ar
    34    33    27   ar
    35     8    14    1
    36     8    15    1
    37    13    16    1
@<TRIPOS>MOLECULE
*****
 34 37 0 0 0
SMALL
GASTEIGER

@<TRIPOS>ATOM
      1 N         139.1419  143.5256  164.2783 N.3     1  UNL1       -0.2698
      2 N         140.4893  145.0296  160.2568 N.pl3   1  UNL1       -0.2769
      3 C         140.6026  143.5711  160.5885 C.3     1  UNL1        0.0950
      4 C         140.1535  143.0698  161.9290 C.3     1  UNL1        0.0375
      5 C         139.5910  144.0269  162.9377 C.3     1  UNL1        0.0612
      6 C         139.4777  145.4854  162.6060 C.3     1  UNL1        0.0375
      7 C         139.9269  145.9867  161.2655 C.3     1  UNL1        0.0950
      8 N         140.4454  147.0445  155.3763 N.pl3   1  UNL1       -0.3278
      9 C         140.9182  146.4571  156.6729 C.ar    1  UNL1        0.2099
     10 N         140.0515  146.0758  157.8363 N.ar    1  UNL1       -0.1804
     11 C         140.9385  145.5310  158.9163 C.ar    1  UNL1        0.2395
     12 N         142.3535  145.5755  158.4204 N.ar    1  UNL1       -0.1349
     13 N         142.3410  146.1479  157.0340 N.ar    1  UNL1       -0.2453
     14 H         139.4859  147.2119  155.2326 H       1  UNL1        0.1451
     15 H         141.0944  147.2625  154.6689 H       1  UNL1        0.1451
     16 H         143.1283  146.2948  156.4615 H       1  UNL1        0.1919
     17 C         137.7804  142.9153  164.4331 C.3     1  UNL1        0.0770
     18 C         137.4609  141.6137  163.7595 C.3     1  UNL1        0.0437
     19 C         138.3424  140.4199  163.9780 C.ar    1  UNL1       -0.0207
     20 C         139.1635  139.8767  162.8463 C.ar    1  UNL1       -0.0034
     21 C         140.0451  138.6829  163.0648 C.ar    1  UNL1        0.0111
     22 C         140.1055  138.0323  164.4151 C.ar    1  UNL1        0.0577
     23 CL        140.9871  136.8386  164.6336 Cl      1  UNL1       -0.0822
     24 C         139.2844  138.5756  165.5468 C.ar    1  UNL1        0.0111
     25 C         138.4029  139.7694  165.3282 C.ar    1  UNL1       -0.0034
     26 C         140.0542  143.6344  165.4639 C.3     1  UNL1        0.1014
     27 C         140.8627  142.4485  165.8995 C.ar    1  UNL1        0.0236
     28 C         141.6864  141.6937  164.8986 C.ar    1  UNL1        0.0289
     29 C         142.4949  140.5077  165.3342 C.ar    1  UNL1        0.1400
     30 F         143.3186  139.7531  164.3333 F       1  UNL1       -0.2042
     31 C         142.4796  140.0764  166.7708 C.ar    1  UNL1        0.0319
     32 C         141.6559  140.8311  167.7717 C.ar    1  UNL1        0.0317
     33 C         140.8474  142.0172  167.3361 C.ar    1  UNL1        0.1376
     34 F         140.0237  142.7718  168.3370 F       1  UNL1       -0.2045
@<TRIPOS>BOND
     1     8     9    1
     2     9    10   ar
     3    10    11   ar
     4    11     2    1
     5     2     3    1
     6     3     4    1
     7     4     5    1
     8     5     1    1
     9     1    17    1
    10    17    18    1
    11    18    19    1
    12    19    20   ar
    13    20    21   ar
    14    21    22   ar
    15    22    23    1
    16    22    24   ar
    17    24    25   ar
    18     1    26    1
    19    26    27    1
    20    27    28   ar
    21    28    29   ar
    22    29    30    1
    23    29    31   ar
    24    31    32   ar
    25    32    33   ar
    26    33    34    1
    27     5     6    1
    28     6     7    1
    29    11    12   ar
    30    12    13   ar
    31    13     9   ar
    32     7     2    1
    33    25    19   ar
    34    33    27   ar
    35     8    14    1
    36     8    15    1
    37    13    16    1
@<TRIPOS>MOLECULE
*****
 34 37 0 0 0
SMALL
GASTEIGER

@<TRIPOS>ATOM
      1 N         142.1588  138.4072  163.5749 N.3     1  UNL1       -0.2698
      2 N         142.4508  140.5217  167.5364 N.pl3   1  UNL1       -0.2769
      3 C         142.9609  139.1181  167.3961 C.3     1  UNL1        0.0950
      4 C         142.8636  138.4133  166.0756 C.3     1  UNL1        0.0375
      5 C         142.2561  139.1121  164.8955 C.3     1  UNL1        0.0612
      6 C         141.7460  140.5156  165.0358 C.3     1  UNL1        0.0375
      7 C         141.8434  141.2204  166.3563 C.3     1  UNL1        0.0950
      8 N         143.5240  144.1376  171.2317 N.pl3   1  UNL1       -0.3278
      9 C         143.0415  142.8886  170.5555 C.ar    1  UNL1        0.2099
     10 N         143.1611  142.5750  169.0935 N.ar    1  UNL1       -0.1804
     11 C         142.5482  141.2266  168.8570 C.ar    1  UNL1        0.2395
     12 N         142.0496  140.7068  170.1727 N.ar    1  UNL1       -0.1349
     13 N         142.3545  141.7339  171.2225 N.ar    1  UNL1       -0.2453
     14 H         143.9657  144.8429  170.7057 H       1  UNL1        0.1451
     15 H         143.3990  144.2520  172.2015 H       1  UNL1        0.1451
     16 H         142.1411  141.6628  172.1809 H       1  UNL1        0.1919
     17 C         141.1542  137.3101  163.3827 C.3     1  UNL1        0.0770
     18 C         139.6872  137.6216  163.4181 C.3     1  UNL1        0.0437
     19 C         139.2085  139.0120  163.1222 C.ar    1  UNL1       -0.0207
     20 C         139.5675  139.6680  161.8219 C.ar    1  UNL1       -0.0034
     21 C         139.0888  141.0584  161.5260 C.ar    1  UNL1        0.0111
     22 C         138.2509  141.7928  162.5304 C.ar    1  UNL1        0.0577
     23 CL        137.7721  143.1832  162.2345 Cl      1  UNL1       -0.0822
     24 C         137.8919  141.1368  163.8307 C.ar    1  UNL1        0.0111
     25 C         138.3707  139.7463  164.1265 C.ar    1  UNL1       -0.0034
     26 C         143.0661  138.7995  162.4467 C.3     1  UNL1        0.1014
     27 C         143.6576  140.1772  162.4043 C.ar    1  UNL1        0.0236
     28 C         143.0352  141.2344  161.5411 C.ar    1  UNL1        0.0289
     29 C         143.6267  142.6122  161.4987 C.ar    1  UNL1        0.1400
     30 F         143.0043  143.6693  160.6355 F       1  UNL1       -0.2042
     31 C         144.8405  142.9329  162.3195 C.ar    1  UNL1        0.0319
     32 C         145.4629  141.8758  163.1827 C.ar    1  UNL1        0.0317
     33 C         144.8714  140.4979  163.2251 C.ar    1  UNL1        0.1376
     34 F         145.4938  139.4409  164.0883 F       1  UNL1       -0.2045
@<TRIPOS>BOND
     1     8     9    1
     2     9    10   ar
     3    10    11   ar
     4    11     2    1
     5     2     3    1
     6     3     4    1
     7     4     5    1
     8     5     1    1
     9     1    17    1
    10    17    18    1
    11    18    19    1
    12    19    20   ar
    13    20    21   ar
    14    21    22   ar
    15    22    23    1
    16    22    24   ar
    17    24    25   ar
    18     1    26    1
    19    26    27    1
    20    27    28   ar
    21    28    29   ar
    22    29    30    1
    23    29    31   ar
    24    31    32   ar
    25    32    33   ar
    26    33    34    1
    27     5     6    1
    28     6     7    1
    29    11    12   ar
    30    12    13   ar
    31    13     9   ar
    32     7     2    1
    33    25    19   ar
    34    33    27   ar
    35     8    14    1
    36     8    15    1
    37    13    16    1
@<TRIPOS>MOLECULE
*****
 34 37 0 0 0
SMALL
GASTEIGER

@<TRIPOS>ATOM
      1 N         143.5145  139.2295  163.5441 N.3     1  UNL1       -0.2698
      2 N         141.7756  140.1923  167.5813 N.pl3   1  UNL1       -0.2769
      3 C         142.8191  139.1229  167.4498 C.3     1  UNL1        0.0950
      4 C         143.3987  138.8020  166.1041 C.3     1  UNL1        0.0375
      5 C         142.9348  139.5505  164.8898 C.3     1  UNL1        0.0612
      6 C         141.8913  140.6200  165.0213 C.3     1  UNL1        0.0375
      7 C         141.3117  140.9409  166.3670 C.3     1  UNL1        0.0950
      8 N         139.7533  142.8439  171.6753 N.pl3   1  UNL1       -0.3278
      9 C         140.2664  141.7321  170.8088 C.ar    1  UNL1        0.2099
     10 N         140.7945  141.8748  169.4122 N.ar    1  UNL1       -0.1804
     11 C         141.1959  140.5133  168.9270 C.ar    1  UNL1        0.2395
     12 N         140.9159  139.5292  170.0239 N.ar    1  UNL1       -0.1349
     13 N         140.3414  140.2824  171.1869 N.ar    1  UNL1       -0.2453
     14 H         139.7441  143.7681  171.3362 H       1  UNL1        0.1451
     15 H         139.4258  142.6493  172.5831 H       1  UNL1        0.1451
     16 H         140.0625  139.8936  172.0473 H       1  UNL1        0.1919
     17 C         144.6818  140.0148  163.0236 C.3     1  UNL1        0.0770
     18 C         144.4887  140.9898  161.9001 C.3     1  UNL1        0.0437
     19 C         143.5828  142.1717  162.0800 C.ar    1  UNL1       -0.0207
     20 C         142.1467  142.0875  161.6552 C.ar    1  UNL1       -0.0034
     21 C         141.2408  143.2694  161.8352 C.ar    1  UNL1        0.0111
     22 C         141.7711  144.5356  162.4400 C.ar    1  UNL1        0.0577
     23 CL        140.8652  145.7175  162.6200 Cl      1  UNL1       -0.0822
     24 C         143.2072  144.6198  162.8648 C.ar    1  UNL1        0.0111
     25 C         144.1131  143.4378  162.6848 C.ar    1  UNL1       -0.0034
     26 C         142.9269  138.1233  162.7188 C.3     1  UNL1        0.1014
     27 C         141.4545  138.1011  162.4338 C.ar    1  UNL1        0.0236
     28 C         140.9279  138.6944  161.1607 C.ar    1  UNL1        0.0289
     29 C         139.4555  138.6722  160.8756 C.ar    1  UNL1        0.1400
     30 F         138.9290  139.2655  159.6025 F       1  UNL1       -0.2042
     31 C         138.5094  138.0567  161.8637 C.ar    1  UNL1        0.0319
     32 C         139.0359  137.4635  163.1368 C.ar    1  UNL1        0.0317
     33 C         140.5085  137.4857  163.4219 C.ar    1  UNL1        0.1376
     34 F         141.0349  136.8924  164.6950 F       1  UNL1       -0.2045
@<TRIPOS>BOND
     1     8     9    1
     2     9    10   ar
     3    10    11   ar
     4    11     2    1
     5     2     3    1
     6     3     4    1
     7     4     5    1
     8     5     1    1
     9     1    17    1
    10    17    18    1
    11    18    19    1
    12    19    20   ar
    13    20    21   ar
    14    21    22   ar
    15    22    23    1
    16    22    24   ar
    17    24    25   ar
    18     1    26    1
    19    26    27    1
    20    27    28   ar
    21    28    29   ar
    22    29    30    1
    23    29    31   ar
    24    31    32   ar
    25    32    33   ar
    26    33    34    1
    27     5     6    1
    28     6     7    1
    29    11    12   ar
    30    12    13   ar
    31    13     9   ar
    32     7     2    1
    33    25    19   ar
    34    33    27   ar
    35     8    14    1
    36     8    15    1
    37    13    16    1
@<TRIPOS>MOLECULE
*****
 34 37 0 0 0
SMALL
GASTEIGER

@<TRIPOS>ATOM
      1 N         139.5300  142.9078  164.5296 N.3     1  UNL1       -0.2698
      2 N         140.7009  144.5984  160.5270 N.pl3   1  UNL1       -0.2769
      3 C         141.0745  143.1905  160.8848 C.3     1  UNL1        0.0950
      4 C         140.6842  142.6270  162.2189 C.3     1  UNL1        0.0375
      5 C         139.9203  143.4714  163.1953 C.3     1  UNL1        0.0612
      6 C         139.5466  144.8793  162.8376 C.3     1  UNL1        0.0375
      7 C         139.9369  145.4428  161.5034 C.3     1  UNL1        0.0950
      8 N         140.4785  147.0081  155.8339 N.pl3   1  UNL1       -0.3278
      9 C         140.9889  146.2696  157.0356 C.ar    1  UNL1        0.2099
     10 N         140.1834  145.8822  158.2402 N.ar    1  UNL1       -0.1804
     11 C         141.0912  145.1620  159.1928 C.ar    1  UNL1        0.2395
     12 N         142.4577  145.1044  158.5769 N.ar    1  UNL1       -0.1349
     13 N         142.3946  145.7890  157.2437 N.ar    1  UNL1       -0.2453
     14 H         139.5342  147.2832  155.7896 H       1  UNL1        0.1451
     15 H         141.0877  147.2177  155.0895 H       1  UNL1        0.1451
     16 H         143.1440  145.9028  156.6156 H       1  UNL1        0.1919
     17 C         140.3351  143.2431  165.7499 C.3     1  UNL1        0.0770
     18 C         141.7077  142.6640  165.9254 C.3     1  UNL1        0.0437
     19 C         141.9482  141.6047  166.9598 C.ar    1  UNL1       -0.0207
     20 C         142.5503  140.2900  166.5611 C.ar    1  UNL1       -0.0034
     21 C         142.7908  139.2308  167.5956 C.ar    1  UNL1        0.0111
     22 C         142.4293  139.4863  169.0288 C.ar    1  UNL1        0.0577
     23 CL        142.6699  138.4271  170.0633 Cl      1  UNL1       -0.0822
     24 C         141.8272  140.8010  169.4275 C.ar    1  UNL1        0.0111
     25 C         141.5867  141.8603  168.3930 C.ar    1  UNL1       -0.0034
     26 C         138.3345  142.0089  164.6433 C.3     1  UNL1        0.1014
     27 C         138.4894  140.5282  164.4604 C.ar    1  UNL1        0.0236
     28 C         138.3148  139.9181  163.1012 C.ar    1  UNL1        0.0289
     29 C         138.4697  138.4374  162.9182 C.ar    1  UNL1        0.1400
     30 F         138.2951  137.8274  161.5590 F       1  UNL1       -0.2042
     31 C         138.7991  137.5668  164.0944 C.ar    1  UNL1        0.0319
     32 C         138.9737  138.1768  165.4535 C.ar    1  UNL1        0.0317
     33 C         138.8188  139.6576  165.6366 C.ar    1  UNL1        0.1376
     34 F         138.9934  140.2676  166.9957 F       1  UNL1       -0.2045
@<TRIPOS>BOND
     1     8     9    1
     2     9    10   ar
     3    10    11   ar
     4    11     2    1
     5     2     3    1
     6     3     4    1
     7     4     5    1
     8     5     1    1
     9     1    17    1
    10    17    18    1
    11    18    19    1
    12    19    20   ar
    13    20    21   ar
    14    21    22   ar
    15    22    23    1
    16    22    24   ar
    17    24    25   ar
    18     1    26    1
    19    26    27    1
    20    27    28   ar
    21    28    29   ar
    22    29    30    1
    23    29    31   ar
    24    31    32   ar
    25    32    33   ar
    26    33    34    1
    27     5     6    1
    28     6     7    1
    29    11    12   ar
    30    12    13   ar
    31    13     9   ar
    32     7     2    1
    33    25    19   ar
    34    33    27   ar
    35     8    14    1
    36     8    15    1
    37    13    16    1
