@<TRIPOS>MOLECULE
*****
 35 37 0 0 0
SMALL
GASTEIGER

@<TRIPOS>ATOM
      1 N         138.3754  141.1923  162.0312 N.3     1  UNL1       -0.2700
      2 C         137.8247  140.2477  159.6744 C.3     1  UNL1        0.0173
      3 C         137.9934  140.0398  161.1504 C.3     1  UNL1        0.0579
      4 C         137.7802  138.6795  161.7454 C.3     1  UNL1        0.0173
      5 C         139.4517  142.1429  161.5979 C.3     1  UNL1        0.0771
      6 C         140.8673  141.6641  161.4671 C.3     1  UNL1        0.0450
      7 C         141.7126  141.4789  162.6924 C.2     1  UNL1       -0.0039
      8 C         142.6037  142.5134  163.3133 C.2     1  UNL1        0.0787
      9 N         143.2570  141.9005  164.5165 N.2     1  UNL1       -0.2517
     10 C         142.7696  140.4872  164.6391 C.2     1  UNL1        0.0627
     11 C         143.0716  139.4039  165.6317 C.3     1  UNL1        0.0717
     12 C         142.4192  138.0601  165.4969 C.2     1  UNL1       -0.0198
     13 C         141.4646  137.7995  164.3695 C.2     1  UNL1       -0.0042
     14 C         141.1626  138.8828  163.3769 C.2     1  UNL1        0.0006
     15 C         141.8151  140.2266  163.5117 C.2     1  UNL1        0.0111
     16 C         142.8060  143.9148  162.8181 C.3     1  UNL1        0.1229
     17 C         143.9287  143.4432  161.9422 C.3     1  UNL1        0.0355
     18 C         141.6834  144.3864  163.6940 C.3     1  UNL1        0.0355
     19 O         143.0084  145.3162  162.3229 O.3     1  UNL1       -0.3812
     20 H         143.7365  145.3307  161.6821 H       1  UNL1        0.2107
     21 C         137.6811  141.3941  163.3454 C.3     1  UNL1        0.0991
     22 C         138.3856  141.0554  164.6256 C.ar    1  UNL1       -0.0061
     23 C         139.2815  142.0658  165.2786 C.ar    1  UNL1       -0.0029
     24 C         139.9861  141.7270  166.5589 C.ar    1  UNL1       -0.0003
     25 C         139.7947  140.3779  167.1860 C.ar    1  UNL1        0.0001
     26 C         138.8989  139.3675  166.5330 C.ar    1  UNL1       -0.0003
     27 C         138.1943  139.7062  165.2528 C.ar    1  UNL1       -0.0029
     28 C         140.4993  140.0392  168.4662 C.2     1  UNL1        0.0047
     29 C         141.3962  141.0492  169.1185 C.2     1  UNL1        0.0598
     30 C         142.1008  140.7106  170.3987 C.2     1  UNL1        0.2679
     31 O         141.6066  141.2734  171.6983 O.2     1  UNL1       -0.2681
     32 N         143.2995  139.8091  170.3794 N.am    1  UNL1       -0.1934
     33 O         144.0041  139.4705  171.6596 O.3     1  UNL1       -0.2949
     34 H         143.6239  139.4396  169.5264 H       1  UNL1        0.1825
     35 H         143.5600  139.9130  172.3998 H       1  UNL1        0.2414
@<TRIPOS>BOND
     1     2     3    1
     2     3     4    1
     3     3     1    1
     4     1     5    1
     5     5     6    1
     6     6     7    1
     7     7     8    2
     8     8    16    1
     9    16    17    1
    10    16    18    1
    11    16    19    1
    12     8     9    1
    13     9    10    2
    14    10    11    1
    15    11    12    1
    16    12    13    2
    17    13    14    1
    18    14    15    2
    19     1    21    1
    20    21    22    1
    21    22    23   ar
    22    23    24   ar
    23    24    25   ar
    24    25    28    1
    25    28    29    2
    26    29    30    1
    27    30    31    2
    28    30    32   am
    29    32    33    1
    30    25    26   ar
    31    26    27   ar
    32    15     7    1
    33    27    22   ar
    34    15    10    1
    35    19    20    1
    36    32    34    1
    37    33    35    1
@<TRIPOS>MOLECULE
*****
 35 37 0 0 0
SMALL
GASTEIGER

@<TRIPOS>ATOM
      1 N         141.7621  143.9467  161.9409 N.3     1  UNL1       -0.2700
      2 C         140.8134  145.0879  159.8084 C.3     1  UNL1        0.0173
      3 C         140.8537  144.9549  161.3020 C.3     1  UNL1        0.0579
      4 C         139.9856  145.8301  162.1566 C.3     1  UNL1        0.0173
      5 C         141.8430  142.5541  161.3893 C.3     1  UNL1        0.0771
      6 C         140.7011  141.6016  161.5872 C.3     1  UNL1        0.0450
      7 C         140.6181  140.7802  162.8395 C.2     1  UNL1       -0.0039
      8 C         139.3622  140.4224  163.5776 C.2     1  UNL1        0.0787
      9 N         139.7443  139.5934  164.7679 N.2     1  UNL1       -0.2517
     10 C         141.2363  139.4389  164.7655 C.2     1  UNL1        0.0627
     11 C         142.1730  138.7251  165.6945 C.3     1  UNL1        0.0717
     12 C         143.6496  138.7448  165.4318 C.2     1  UNL1       -0.0198
     13 C         144.1896  139.4782  164.2400 C.2     1  UNL1       -0.0042
     14 C         143.2530  140.1920  163.3109 C.2     1  UNL1        0.0006
     15 C         141.7764  140.1724  163.5737 C.2     1  UNL1        0.0111
     16 C         137.9688  140.8232  163.1929 C.3     1  UNL1        0.1229
     17 C         137.8910  139.6539  162.2566 C.3     1  UNL1        0.0355
     18 C         138.0467  141.9925  164.1292 C.3     1  UNL1        0.0355
     19 O         136.5755  141.2239  162.8082 O.3     1  UNL1       -0.3812
     20 H         136.2277  140.5974  162.1544 H       1  UNL1        0.2107
     21 C         142.5898  144.3310  163.1314 C.3     1  UNL1        0.0991
     22 C         142.3758  143.6430  164.4471 C.ar    1  UNL1       -0.0061
     23 C         143.5432  143.0608  165.1876 C.ar    1  UNL1       -0.0029
     24 C         143.3292  142.3729  166.5032 C.ar    1  UNL1       -0.0003
     25 C         141.9479  142.2670  167.0784 C.ar    1  UNL1        0.0001
     26 C         140.7805  142.8492  166.3379 C.ar    1  UNL1       -0.0003
     27 C         140.9944  143.5371  165.0222 C.ar    1  UNL1       -0.0029
     28 C         141.7340  141.5790  168.3940 C.2     1  UNL1        0.0047
     29 C         140.4847  141.8398  169.1823 C.2     1  UNL1        0.0598
     30 C         140.2707  141.1519  170.4980 C.2     1  UNL1        0.2679
     31 O         140.5494  141.8804  171.7792 O.2     1  UNL1       -0.2681
     32 N         139.7781  139.7355  170.5324 N.am    1  UNL1       -0.1934
     33 O         139.5641  139.0477  171.8481 O.3     1  UNL1       -0.2949
     34 H         139.5952  139.2574  169.6915 H       1  UNL1        0.1825
     35 H         139.7895  139.6544  172.5706 H       1  UNL1        0.2414
@<TRIPOS>BOND
     1     2     3    1
     2     3     4    1
     3     3     1    1
     4     1     5    1
     5     5     6    1
     6     6     7    1
     7     7     8    2
     8     8    16    1
     9    16    17    1
    10    16    18    1
    11    16    19    1
    12     8     9    1
    13     9    10    2
    14    10    11    1
    15    11    12    1
    16    12    13    2
    17    13    14    1
    18    14    15    2
    19     1    21    1
    20    21    22    1
    21    22    23   ar
    22    23    24   ar
    23    24    25   ar
    24    25    28    1
    25    28    29    2
    26    29    30    1
    27    30    31    2
    28    30    32   am
    29    32    33    1
    30    25    26   ar
    31    26    27   ar
    32    15     7    1
    33    27    22   ar
    34    15    10    1
    35    19    20    1
    36    32    34    1
    37    33    35    1
@<TRIPOS>MOLECULE
*****
 35 37 0 0 0
SMALL
GASTEIGER

@<TRIPOS>ATOM
      1 N         140.9168  138.2954  162.1907 N.3     1  UNL1       -0.2700
      2 C         139.8921  138.4045  159.8058 C.3     1  UNL1        0.0173
      3 C         139.7197  138.2516  161.2880 C.3     1  UNL1        0.0579
      4 C         138.3502  138.0549  161.8674 C.3     1  UNL1        0.0173
      5 C         142.1626  139.0057  161.7505 C.3     1  UNL1        0.0771
      6 C         142.1392  140.4877  161.5197 C.3     1  UNL1        0.0450
      7 C         142.0148  141.4261  162.6833 C.2     1  UNL1       -0.0039
      8 C         143.1471  142.1168  163.3839 C.2     1  UNL1        0.0787
      9 N         142.5683  142.9561  164.4842 N.2     1  UNL1       -0.2517
     10 C         141.0784  142.7841  164.4636 C.2     1  UNL1        0.0627
     11 C         139.9890  143.3663  165.3146 C.3     1  UNL1        0.0717
     12 C         138.5575  143.0029  165.0526 C.2     1  UNL1       -0.0198
     13 C         138.2154  142.0573  163.9396 C.2     1  UNL1       -0.0042
     14 C         139.3048  141.4751  163.0886 C.2     1  UNL1        0.0006
     15 C         140.7363  141.8384  163.3506 C.2     1  UNL1        0.0111
     16 C         144.6026  141.9905  163.0438 C.3     1  UNL1        0.1229
     17 C         144.4814  143.1463  162.0955 C.3     1  UNL1        0.0355
     18 C         144.7238  140.8346  163.9922 C.3     1  UNL1        0.0355
     19 O         146.0581  141.8641  162.7038 O.3     1  UNL1       -0.3812
     20 H         146.2979  142.5416  162.0524 H       1  UNL1        0.2107
     21 C         140.8683  137.6290  163.5337 C.3     1  UNL1        0.0991
     22 C         140.6117  138.4441  164.7665 C.ar    1  UNL1       -0.0061
     23 C         139.2082  138.6377  165.2589 C.ar    1  UNL1       -0.0029
     24 C         138.9517  139.4528  166.4918 C.ar    1  UNL1       -0.0003
     25 C         140.0987  140.0743  167.2321 C.ar    1  UNL1        0.0001
     26 C         141.5022  139.8808  166.7396 C.ar    1  UNL1       -0.0003
     27 C         141.7588  139.0657  165.5068 C.ar    1  UNL1       -0.0029
     28 C         139.8421  140.8894  168.4649 C.2     1  UNL1        0.0047
     29 C         140.5490  142.1980  168.6593 C.2     1  UNL1        0.0598
     30 C         140.2925  143.0132  169.8921 C.2     1  UNL1        0.2679
     31 O         141.2771  144.0625  170.3156 O.2     1  UNL1       -0.2681
     32 N         139.0514  142.7791  170.7013 N.am    1  UNL1       -0.1934
     33 O         138.7949  143.5943  171.9341 O.3     1  UNL1       -0.2949
     34 H         138.4051  142.0904  170.4233 H       1  UNL1        0.1825
     35 H         139.5231  144.2218  172.0640 H       1  UNL1        0.2414
@<TRIPOS>BOND
     1     2     3    1
     2     3     4    1
     3     3     1    1
     4     1     5    1
     5     5     6    1
     6     6     7    1
     7     7     8    2
     8     8    16    1
     9    16    17    1
    10    16    18    1
    11    16    19    1
    12     8     9    1
    13     9    10    2
    14    10    11    1
    15    11    12    1
    16    12    13    2
    17    13    14    1
    18    14    15    2
    19     1    21    1
    20    21    22    1
    21    22    23   ar
    22    23    24   ar
    23    24    25   ar
    24    25    28    1
    25    28    29    2
    26    29    30    1
    27    30    31    2
    28    30    32   am
    29    32    33    1
    30    25    26   ar
    31    26    27   ar
    32    15     7    1
    33    27    22   ar
    34    15    10    1
    35    19    20    1
    36    32    34    1
    37    33    35    1
@<TRIPOS>MOLECULE
*****
 35 37 0 0 0
SMALL
GASTEIGER

@<TRIPOS>ATOM
      1 N         143.9633  140.7803  161.7707 N.3     1  UNL1       -0.2700
      2 C         143.7770  139.9442  159.3179 C.3     1  UNL1        0.0173
      3 C         143.8711  139.6523  160.7863 C.3     1  UNL1        0.0579
      4 C         143.8730  138.2325  161.2701 C.3     1  UNL1        0.0173
      5 C         143.2849  142.0863  161.4807 C.3     1  UNL1        0.0771
      6 C         141.7880  142.1550  161.4123 C.3     1  UNL1        0.0450
      7 C         140.9754  142.0772  162.6707 C.2     1  UNL1       -0.0039
      8 C         140.4956  143.2428  163.4839 C.2     1  UNL1        0.0787
      9 N         139.7236  142.7061  164.6526 N.2     1  UNL1       -0.2517
     10 C         139.7263  141.2089  164.5618 C.2     1  UNL1        0.0627
     11 C         139.1242  140.1493  165.4362 C.3     1  UNL1        0.0717
     12 C         139.2957  138.7009  165.0857 C.2     1  UNL1       -0.0198
     13 C         140.0693  138.3122  163.8608 C.2     1  UNL1       -0.0042
     14 C         140.6714  139.3719  162.9864 C.2     1  UNL1        0.0006
     15 C         140.4999  140.8202  163.3369 C.2     1  UNL1        0.0111
     16 C         140.7442  144.6908  163.1814 C.3     1  UNL1        0.1229
     17 C         142.0076  144.6425  163.9886 C.3     1  UNL1        0.0355
     18 C         139.4809  144.7391  162.3742 C.3     1  UNL1        0.0355
     19 O         140.9928  146.1388  162.8789 O.3     1  UNL1       -0.3812
     20 H         141.8167  146.4215  163.3059 H       1  UNL1        0.2107
     21 C         144.7340  140.6024  163.0452 C.3     1  UNL1        0.0991
     22 C         144.0049  140.3965  164.3399 C.ar    1  UNL1       -0.0061
     23 C         143.6767  139.0082  164.8033 C.ar    1  UNL1       -0.0029
     24 C         142.9477  138.8024  166.0980 C.ar    1  UNL1       -0.0003
     25 C         142.5469  139.9849  166.9292 C.ar    1  UNL1        0.0001
     26 C         142.8751  141.3733  166.4658 C.ar    1  UNL1       -0.0003
     27 C         143.6041  141.5791  165.1712 C.ar    1  UNL1       -0.0029
     28 C         141.8178  139.7791  168.2239 C.2     1  UNL1        0.0047
     29 C         140.7032  140.7047  168.6123 C.2     1  UNL1        0.0598
     30 C         139.9741  140.4989  169.9070 C.2     1  UNL1        0.2679
     31 O         139.0219  141.5450  170.4058 O.2     1  UNL1       -0.2681
     32 N         140.1973  139.2472  170.7027 N.am    1  UNL1       -0.1934
     33 O         139.4681  139.0415  171.9974 O.3     1  UNL1       -0.2949
     34 H         140.8223  138.5606  170.3753 H       1  UNL1        0.1825
     35 H         138.8972  139.8060  172.1719 H       1  UNL1        0.2414
@<TRIPOS>BOND
     1     2     3    1
     2     3     4    1
     3     3     1    1
     4     1     5    1
     5     5     6    1
     6     6     7    1
     7     7     8    2
     8     8    16    1
     9    16    17    1
    10    16    18    1
    11    16    19    1
    12     8     9    1
    13     9    10    2
    14    10    11    1
    15    11    12    1
    16    12    13    2
    17    13    14    1
    18    14    15    2
    19     1    21    1
    20    21    22    1
    21    22    23   ar
    22    23    24   ar
    23    24    25   ar
    24    25    28    1
    25    28    29    2
    26    29    30    1
    27    30    31    2
    28    30    32   am
    29    32    33    1
    30    25    26   ar
    31    26    27   ar
    32    15     7    1
    33    27    22   ar
    34    15    10    1
    35    19    20    1
    36    32    34    1
    37    33    35    1
@<TRIPOS>MOLECULE
*****
 35 37 0 0 0
SMALL
GASTEIGER

@<TRIPOS>ATOM
      1 N         141.5089  138.4055  161.3274 N.3     1  UNL1       -0.2700
      2 C         140.9635  138.4406  158.7875 C.3     1  UNL1        0.0173
      3 C         140.5029  138.4164  160.2148 C.3     1  UNL1        0.0579
      4 C         139.0364  138.4030  160.5296 C.3     1  UNL1        0.0173
      5 C         142.7220  139.2844  161.2502 C.3     1  UNL1        0.0771
      6 C         142.5705  140.7765  161.2822 C.3     1  UNL1        0.0450
      7 C         142.3044  141.4757  162.5823 C.2     1  UNL1       -0.0039
      8 C         143.3418  142.0195  163.5194 C.2     1  UNL1        0.0787
      9 N         142.6327  142.6336  164.6899 N.2     1  UNL1       -0.2517
     10 C         141.1571  142.4694  164.4762 C.2     1  UNL1        0.0627
     11 C         139.9720  142.8790  165.2994 C.3     1  UNL1        0.0717
     12 C         138.5840  142.5729  164.8201 C.2     1  UNL1       -0.0198
     13 C         138.3811  141.8573  163.5175 C.2     1  UNL1       -0.0042
     14 C         139.5662  141.4476  162.6943 C.2     1  UNL1        0.0006
     15 C         140.9542  141.7537  163.1737 C.2     1  UNL1        0.0111
     16 C         144.8274  141.9597  163.3208 C.3     1  UNL1        0.1229
     17 C         144.8791  140.6759  164.0949 C.3     1  UNL1        0.0355
     18 C         144.7756  143.2435  162.5468 C.3     1  UNL1        0.0355
     19 O         146.3130  141.8999  163.1223 O.3     1  UNL1       -0.3812
     20 H         146.6648  141.1043  163.5514 H       1  UNL1        0.2107
     21 C         141.3019  137.5159  162.5172 C.3     1  UNL1        0.0991
     22 C         140.8154  138.0963  163.8119 C.ar    1  UNL1       -0.0061
     23 C         141.7957  138.6674  164.7932 C.ar    1  UNL1       -0.0029
     24 C         141.3091  139.2477  166.0880 C.ar    1  UNL1       -0.0003
     25 C         139.8423  139.2570  166.4015 C.ar    1  UNL1        0.0001
     26 C         138.8620  138.6860  165.4203 C.ar    1  UNL1       -0.0003
     27 C         139.3485  138.1056  164.1255 C.ar    1  UNL1       -0.0029
     28 C         139.3558  139.8374  167.6963 C.2     1  UNL1        0.0047
     29 C         140.3410  140.3296  168.7147 C.2     1  UNL1        0.0598
     30 C         139.8546  140.9100  170.0095 C.2     1  UNL1        0.2679
     31 O         138.4154  140.7602  170.4047 O.2     1  UNL1       -0.2681
     32 N         140.8073  141.6401  170.9091 N.am    1  UNL1       -0.1934
     33 O         140.3208  142.2205  172.2039 O.3     1  UNL1       -0.2949
     34 H         141.7519  141.7384  170.6497 H       1  UNL1        0.1825
     35 H         139.3739  142.0359  172.3054 H       1  UNL1        0.2414
@<TRIPOS>BOND
     1     2     3    1
     2     3     4    1
     3     3     1    1
     4     1     5    1
     5     5     6    1
     6     6     7    1
     7     7     8    2
     8     8    16    1
     9    16    17    1
    10    16    18    1
    11    16    19    1
    12     8     9    1
    13     9    10    2
    14    10    11    1
    15    11    12    1
    16    12    13    2
    17    13    14    1
    18    14    15    2
    19     1    21    1
    20    21    22    1
    21    22    23   ar
    22    23    24   ar
    23    24    25   ar
    24    25    28    1
    25    28    29    2
    26    29    30    1
    27    30    31    2
    28    30    32   am
    29    32    33    1
    30    25    26   ar
    31    26    27   ar
    32    15     7    1
    33    27    22   ar
    34    15    10    1
    35    19    20    1
    36    32    34    1
    37    33    35    1
@<TRIPOS>MOLECULE
*****
 35 37 0 0 0
SMALL
GASTEIGER

@<TRIPOS>ATOM
      1 N         141.5289  138.0967  162.0153 N.3     1  UNL1       -0.2700
      2 C         144.0848  137.9633  161.5680 C.3     1  UNL1        0.0173
      3 C         142.6755  137.9845  161.0546 C.3     1  UNL1        0.0579
      4 C         142.4128  137.8936  159.5806 C.3     1  UNL1        0.0173
      5 C         140.2892  138.8427  161.6196 C.3     1  UNL1        0.0771
      6 C         140.3384  140.3293  161.4251 C.3     1  UNL1        0.0450
      7 C         140.5390  141.2339  162.6047 C.2     1  UNL1       -0.0039
      8 C         139.4550  141.8320  163.4516 C.2     1  UNL1        0.0787
      9 N         140.1049  142.6668  164.5148 N.2     1  UNL1       -0.2517
     10 C         141.5906  142.5847  164.3251 C.2     1  UNL1        0.0627
     11 C         142.7338  143.2019  165.0748 C.3     1  UNL1        0.0717
     12 C         144.1453  142.9335  164.6440 C.2     1  UNL1       -0.0198
     13 C         144.4135  142.0479  163.4634 C.2     1  UNL1       -0.0042
     14 C         143.2704  141.4307  162.7137 C.2     1  UNL1        0.0006
     15 C         141.8589  141.6991  163.1446 C.2     1  UNL1        0.0111
     16 C         137.9800  141.6306  163.2675 C.3     1  UNL1        0.1229
     17 C         137.9359  142.8053  162.3358 C.3     1  UNL1        0.0355
     18 C         138.0241  140.4558  164.1991 C.3     1  UNL1        0.0355
     19 O         136.5050  141.4292  163.0834 O.3     1  UNL1       -0.3812
     20 H         136.1602  142.1020  162.4757 H       1  UNL1        0.2107
     21 C         141.6220  137.4629  163.3716 C.3     1  UNL1        0.0991
     22 C         141.8465  138.3165  164.5844 C.ar    1  UNL1       -0.0061
     23 C         143.2416  138.6832  164.9957 C.ar    1  UNL1       -0.0029
     24 C         143.4660  139.5368  166.2086 C.ar    1  UNL1       -0.0003
     25 C         142.2954  140.0238  167.0101 C.ar    1  UNL1        0.0001
     26 C         140.9003  139.6571  166.5988 C.ar    1  UNL1       -0.0003
     27 C         140.6758  138.8035  165.3860 C.ar    1  UNL1       -0.0029
     28 C         142.5199  140.8774  168.2229 C.2     1  UNL1        0.0047
     29 C         141.7075  142.1220  168.4248 C.2     1  UNL1        0.0598
     30 C         141.9319  142.9757  169.6376 C.2     1  UNL1        0.2679
     31 O         140.7668  143.6252  170.3236 O.2     1  UNL1       -0.2681
     32 N         143.3214  143.1799  170.1645 N.am    1  UNL1       -0.1934
     33 O         143.5457  144.0336  171.3773 O.3     1  UNL1       -0.2949
     34 H         144.0861  142.7537  169.7143 H       1  UNL1        0.1825
     35 H         142.6948  144.3744  171.6947 H       1  UNL1        0.2414
@<TRIPOS>BOND
     1     2     3    1
     2     3     4    1
     3     3     1    1
     4     1     5    1
     5     5     6    1
     6     6     7    1
     7     7     8    2
     8     8    16    1
     9    16    17    1
    10    16    18    1
    11    16    19    1
    12     8     9    1
    13     9    10    2
    14    10    11    1
    15    11    12    1
    16    12    13    2
    17    13    14    1
    18    14    15    2
    19     1    21    1
    20    21    22    1
    21    22    23   ar
    22    23    24   ar
    23    24    25   ar
    24    25    28    1
    25    28    29    2
    26    29    30    1
    27    30    31    2
    28    30    32   am
    29    32    33    1
    30    25    26   ar
    31    26    27   ar
    32    15     7    1
    33    27    22   ar
    34    15    10    1
    35    19    20    1
    36    32    34    1
    37    33    35    1
@<TRIPOS>MOLECULE
*****
 35 37 0 0 0
SMALL
GASTEIGER

@<TRIPOS>ATOM
      1 N         139.5410  143.3457  161.3776 N.3     1  UNL1       -0.2700
      2 C         139.5036  145.8415  162.0985 C.3     1  UNL1        0.0173
      3 C         139.8861  144.7806  161.1094 C.3     1  UNL1        0.0579
      4 C         140.6136  145.1547  159.8522 C.3     1  UNL1        0.0173
      5 C         140.3272  142.2499  160.7210 C.3     1  UNL1        0.0771
      6 C         141.7922  142.1022  161.0082 C.3     1  UNL1        0.0450
      7 C         142.2552  141.7797  162.3981 C.2     1  UNL1       -0.0039
      8 C         143.0513  142.6818  163.2937 C.2     1  UNL1        0.0787
      9 N         143.2915  141.9581  164.5854 N.2     1  UNL1       -0.2517
     10 C         142.6437  140.6086  164.4881 C.2     1  UNL1        0.0627
     11 C         142.5544  139.4660  165.4557 C.3     1  UNL1        0.0717
     12 C         141.8246  138.2132  165.0715 C.2     1  UNL1       -0.0198
     13 C         141.1841  138.1029  163.7196 C.2     1  UNL1       -0.0042
     14 C         141.2734  139.2455  162.7520 C.2     1  UNL1        0.0006
     15 C         142.0033  140.4984  163.1362 C.2     1  UNL1        0.0111
     16 C         143.5243  144.0649  162.9569 C.3     1  UNL1        0.1229
     17 C         142.4545  144.6444  163.8343 C.3     1  UNL1        0.0355
     18 C         144.5940  143.4854  162.0795 C.3     1  UNL1        0.0355
     19 O         143.9972  145.4479  162.6200 O.3     1  UNL1       -0.3812
     20 H         143.4470  146.0994  163.0823 H       1  UNL1        0.2107
     21 C         138.4097  143.0065  162.3023 C.3     1  UNL1        0.0991
     22 C         138.6808  142.2681  163.5796 C.ar    1  UNL1       -0.0061
     23 C         138.0964  140.9037  163.7957 C.ar    1  UNL1       -0.0029
     24 C         138.3675  140.1654  165.0730 C.ar    1  UNL1       -0.0003
     25 C         139.2231  140.7915  166.1341 C.ar    1  UNL1        0.0001
     26 C         139.8075  142.1559  165.9180 C.ar    1  UNL1       -0.0003
     27 C         139.5364  142.8943  164.6408 C.ar    1  UNL1       -0.0029
     28 C         139.4941  140.0531  167.4114 C.2     1  UNL1        0.0047
     29 C         139.9665  140.7998  168.6235 C.2     1  UNL1        0.0598
     30 C         140.2376  140.0615  169.9008 C.2     1  UNL1        0.2679
     31 O         141.6508  139.8047  170.3330 O.2     1  UNL1       -0.2681
     32 N         139.0956  139.5802  170.7458 N.am    1  UNL1       -0.1934
     33 O         139.3668  138.8419  172.0231 O.3     1  UNL1       -0.2949
     34 H         138.1681  139.7487  170.4621 H       1  UNL1        0.1825
     35 H         140.3247  138.7618  172.1531 H       1  UNL1        0.2414
@<TRIPOS>BOND
     1     2     3    1
     2     3     4    1
     3     3     1    1
     4     1     5    1
     5     5     6    1
     6     6     7    1
     7     7     8    2
     8     8    16    1
     9    16    17    1
    10    16    18    1
    11    16    19    1
    12     8     9    1
    13     9    10    2
    14    10    11    1
    15    11    12    1
    16    12    13    2
    17    13    14    1
    18    14    15    2
    19     1    21    1
    20    21    22    1
    21    22    23   ar
    22    23    24   ar
    23    24    25   ar
    24    25    28    1
    25    28    29    2
    26    29    30    1
    27    30    31    2
    28    30    32   am
    29    32    33    1
    30    25    26   ar
    31    26    27   ar
    32    15     7    1
    33    27    22   ar
    34    15    10    1
    35    19    20    1
    36    32    34    1
    37    33    35    1
@<TRIPOS>MOLECULE
*****
 35 37 0 0 0
SMALL
GASTEIGER

@<TRIPOS>ATOM
      1 N         142.2310  143.1737  161.6859 N.3     1  UNL1       -0.2700
      2 C         143.8132  142.8035  159.6587 C.3     1  UNL1        0.0173
      3 C         143.6166  143.0981  161.1163 C.3     1  UNL1        0.0579
      4 C         144.8055  143.3171  162.0043 C.3     1  UNL1        0.0173
      5 C         141.1034  142.4471  161.0146 C.3     1  UNL1        0.0771
      6 C         141.1621  140.9569  160.8529 C.3     1  UNL1        0.0450
      7 C         141.1474  140.0701  162.0627 C.2     1  UNL1       -0.0039
      8 C         142.1987  139.0663  162.4329 C.2     1  UNL1        0.0787
      9 N         141.7798  138.4073  163.7136 N.2     1  UNL1       -0.2517
     10 C         140.4695  139.0038  164.1349 C.2     1  UNL1        0.0627
     11 C         139.5819  138.7440  165.3158 C.3     1  UNL1        0.0717
     12 C         138.3034  139.5118  165.4763 C.2     1  UNL1       -0.0198
     13 C         137.9125  140.5395  164.4559 C.2     1  UNL1       -0.0042
     14 C         138.8002  140.7994  163.2751 C.2     1  UNL1        0.0006
     15 C         140.0787  140.0315  163.1145 C.2     1  UNL1        0.0111
     16 C         143.4494  138.7730  161.6584 C.3     1  UNL1        0.1229
     17 C         142.6853  137.8234  160.7841 C.3     1  UNL1        0.0355
     18 C         144.2135  139.7226  162.5327 C.3     1  UNL1        0.0355
     19 O         144.7000  138.4797  160.8839 O.3     1  UNL1       -0.3812
     20 H         144.5037  137.8375  160.1839 H       1  UNL1        0.2107
     21 C         141.9729  143.9758  162.9269 C.3     1  UNL1        0.0991
     22 C         141.6011  143.2825  164.2041 C.ar    1  UNL1       -0.0061
     23 C         142.4867  142.2063  164.7586 C.ar    1  UNL1       -0.0029
     24 C         142.1148  141.5132  166.0358 C.ar    1  UNL1       -0.0003
     25 C         140.8575  141.8962  166.7585 C.ar    1  UNL1        0.0001
     26 C         139.9719  142.9724  166.2040 C.ar    1  UNL1       -0.0003
     27 C         140.3437  143.6656  164.9268 C.ar    1  UNL1       -0.0029
     28 C         140.4857  141.2030  168.0357 C.2     1  UNL1        0.0047
     29 C         140.7929  141.8467  169.3553 C.2     1  UNL1        0.0598
     30 C         140.4212  141.1535  170.6325 C.2     1  UNL1        0.2679
     31 O         140.5634  141.8693  171.9431 O.2     1  UNL1       -0.2681
     32 N         139.9072  139.7447  170.5993 N.am    1  UNL1       -0.1934
     33 O         139.5355  139.0517  171.8766 O.3     1  UNL1       -0.2949
     34 H         139.8139  139.2749  169.7392 H       1  UNL1        0.1825
     35 H         139.6864  139.6501  172.6250 H       1  UNL1        0.2414
@<TRIPOS>BOND
     1     2     3    1
     2     3     4    1
     3     3     1    1
     4     1     5    1
     5     5     6    1
     6     6     7    1
     7     7     8    2
     8     8    16    1
     9    16    17    1
    10    16    18    1
    11    16    19    1
    12     8     9    1
    13     9    10    2
    14    10    11    1
    15    11    12    1
    16    12    13    2
    17    13    14    1
    18    14    15    2
    19     1    21    1
    20    21    22    1
    21    22    23   ar
    22    23    24   ar
    23    24    25   ar
    24    25    28    1
    25    28    29    2
    26    29    30    1
    27    30    31    2
    28    30    32   am
    29    32    33    1
    30    25    26   ar
    31    26    27   ar
    32    15     7    1
    33    27    22   ar
    34    15    10    1
    35    19    20    1
    36    32    34    1
    37    33    35    1
@<TRIPOS>MOLECULE
*****
 35 37 0 0 0
SMALL
GASTEIGER

@<TRIPOS>ATOM
      1 N         140.0803  140.3331  160.9172 N.3     1  UNL1       -0.2700
      2 C         138.5179  141.8809  159.5341 C.3     1  UNL1        0.0173
      3 C         139.7610  141.0479  159.6378 C.3     1  UNL1        0.0579
      4 C         140.6849  140.9299  158.4620 C.3     1  UNL1        0.0173
      5 C         141.4471  140.4541  161.5231 C.3     1  UNL1        0.0771
      6 C         141.8919  141.7584  162.1160 C.3     1  UNL1        0.0450
      7 C         142.0906  141.8796  163.5978 C.2     1  UNL1       -0.0039
      8 C         142.0511  143.1518  164.3915 C.2     1  UNL1        0.0787
      9 N         142.2998  142.8083  165.8303 N.2     1  UNL1       -0.2517
     10 C         142.4930  141.3239  165.9259 C.2     1  UNL1        0.0627
     11 C         142.7700  140.4207  167.0910 C.3     1  UNL1        0.0717
     12 C         142.9177  138.9436  166.8763 C.2     1  UNL1       -0.0198
     13 C         142.7884  138.3696  165.4965 C.2     1  UNL1       -0.0042
     14 C         142.5114  139.2727  164.3314 C.2     1  UNL1        0.0006
     15 C         142.3638  140.7499  164.5461 C.2     1  UNL1        0.0111
     16 C         141.8059  144.5261  163.8428 C.3     1  UNL1        0.1229
     17 C         143.2831  144.7205  163.6695 C.3     1  UNL1        0.0355
     18 C         140.3287  144.3317  164.0160 C.3     1  UNL1        0.0355
     19 O         141.5607  145.9004  163.2940 O.3     1  UNL1       -0.3812
     20 H         142.4085  146.3152  163.0701 H       1  UNL1        0.2107
     21 C         139.0328  139.4971  161.5909 C.3     1  UNL1        0.0991
     22 C         138.9532  139.4578  163.0882 C.ar    1  UNL1       -0.0061
     23 C         138.6899  140.7177  163.8586 C.ar    1  UNL1       -0.0029
     24 C         138.6104  140.6783  165.3560 C.ar    1  UNL1       -0.0003
     25 C         138.7941  139.3792  166.0830 C.ar    1  UNL1        0.0001
     26 C         139.0574  138.1194  165.3127 C.ar    1  UNL1       -0.0003
     27 C         139.1369  138.1586  163.8153 C.ar    1  UNL1       -0.0029
     28 C         138.7145  139.3400  167.5804 C.2     1  UNL1        0.0047
     29 C         139.5591  140.2691  168.4009 C.2     1  UNL1        0.0598
     30 C         139.4796  140.2299  169.8983 C.2     1  UNL1        0.2679
     31 O         138.2292  139.7456  170.5705 O.2     1  UNL1       -0.2681
     32 N         140.6505  140.6749  170.7235 N.am    1  UNL1       -0.1934
     33 O         140.5709  140.6357  172.2209 O.3     1  UNL1       -0.2949
     34 H         141.4712  140.9928  170.2824 H       1  UNL1        0.1825
     35 H         139.7014  140.3001  172.4898 H       1  UNL1        0.2414
@<TRIPOS>BOND
     1     2     3    1
     2     3     4    1
     3     3     1    1
     4     1     5    1
     5     5     6    1
     6     6     7    1
     7     7     8    2
     8     8    16    1
     9    16    17    1
    10    16    18    1
    11    16    19    1
    12     8     9    1
    13     9    10    2
    14    10    11    1
    15    11    12    1
    16    12    13    2
    17    13    14    1
    18    14    15    2
    19     1    21    1
    20    21    22    1
    21    22    23   ar
    22    23    24   ar
    23    24    25   ar
    24    25    28    1
    25    28    29    2
    26    29    30    1
    27    30    31    2
    28    30    32   am
    29    32    33    1
    30    25    26   ar
    31    26    27   ar
    32    15     7    1
    33    27    22   ar
    34    15    10    1
    35    19    20    1
    36    32    34    1
    37    33    35    1
