@<TRIPOS>MOLECULE
*****
 36 39 0 0 0
SMALL
GASTEIGER

@<TRIPOS>ATOM
      1 C         140.0818  139.5680  158.6942 C.ar    1  UNL1        0.0480
      2 C         140.5676  140.9735  158.4987 C.ar    1  UNL1        0.0158
      3 C         139.9129  142.1030  159.2374 C.ar    1  UNL1        0.0159
      4 C         138.7723  141.8269  160.1716 C.ar    1  UNL1        0.0505
      5 C         138.2865  140.4213  160.3671 C.ar    1  UNL1        0.0159
      6 C         138.9412  139.2918  159.6284 C.ar    1  UNL1        0.0158
      7 N         142.0459  136.1796  156.4781 N.3     1  UNL1       -0.1559
      8 C         142.7557  136.8376  157.6241 C.3     1  UNL1        0.1168
      9 C         142.1009  137.9670  158.3628 C.3     1  UNL1        0.1099
     10 N         140.7365  138.4385  157.9555 N.pl3   1  UNL1       -0.3045
     11 C         140.0267  137.7805  156.8095 C.3     1  UNL1        0.1099
     12 C         140.6815  136.6510  156.0708 C.3     1  UNL1        0.1168
     13 S         142.7006  135.0501  155.7394 S.O2    1  UNL1        0.0465
     14 O         144.0199  135.7587  155.8254 O.2     1  UNL1       -0.1572
     15 O         141.3813  134.3416  155.6534 O.2     1  UNL1       -0.1572
     16 C         143.3554  133.9207  155.0007 C.3     1  UNL1        0.2010
     17 C         143.9212  132.7567  155.7590 C.3     1  UNL1        0.1693
     18 C         145.2226  132.2621  157.9525 C.3     1  UNL1        0.1742
     19 O         144.0124  132.8093  157.2553 O.3     1  UNL1       -0.3492
     20 N         138.1176  142.9563  160.9103 N.pl3   1  UNL1       -0.2825
     21 H         137.4724  143.5385  160.4478 H       1  UNL1        0.1551
     22 C         138.4460  143.1987  162.3536 C.ar    1  UNL1        0.2207
     23 N         137.6041  144.1367  163.1671 N.ar    1  UNL1       -0.2120
     24 C         137.9325  144.3791  164.6105 C.ar    1  UNL1        0.1034
     25 C         139.1027  143.6836  165.2405 C.ar    1  UNL1        0.0414
     26 C         139.9446  142.7457  164.4271 C.ar    1  UNL1        0.1030
     27 N         139.6162  142.5032  162.9836 N.ar    1  UNL1       -0.2120
     28 C         141.1148  142.0502  165.0571 C.ar    1  UNL1        0.0981
     29 C         142.4697  142.6468  165.2983 C.ar    1  UNL1        0.1188
     30 N         143.3278  141.6013  165.9468 N.ar    1  UNL1       -0.2293
     31 C         142.5033  140.3585  166.1064 C.ar    1  UNL1        0.1208
     32 C         142.9653  139.0653  166.7098 C.3     1  UNL1        0.0718
     33 N         141.1355  140.6359  165.5565 N.ar    1  UNL1       -0.3155
     34 C         139.9897  139.6688  165.5136 C.3     1  UNL1        0.0868
     35 C         139.0703  139.5424  166.6919 C.3     1  UNL1        0.0245
     36 C         139.7633  138.8280  164.2921 C.3     1  UNL1        0.0245
@<TRIPOS>BOND
     1    18    19    1
     2    19    17    1
     3    17    16    1
     4    16    13    1
     5    13    14    2
     6    13    15    2
     7    13     7    1
     8     7     8    1
     9     8     9    1
    10     9    10    1
    11    10     1    1
    12     1     2   ar
    13     2     3   ar
    14     3     4   ar
    15     4    20    1
    16    20    22    1
    17    22    23   ar
    18    23    24   ar
    19    24    25   ar
    20    25    26   ar
    21    26    28    1
    22    28    29   ar
    23    29    30   ar
    24    30    31   ar
    25    31    32    1
    26    31    33   ar
    27    33    34    1
    28    34    35    1
    29    34    36    1
    30    26    27   ar
    31     4     5   ar
    32     5     6   ar
    33    10    11    1
    34    11    12    1
    35    12     7    1
    36     6     1   ar
    37    27    22   ar
    38    33    28   ar
    39    20    21    1
@<TRIPOS>MOLECULE
*****
 36 39 0 0 0
SMALL
GASTEIGER

@<TRIPOS>ATOM
      1 C         142.8470  137.8717  157.8790 C.ar    1  UNL1        0.0480
      2 C         142.8774  137.8757  159.3786 C.ar    1  UNL1        0.0158
      3 C         143.2366  139.1304  160.1182 C.ar    1  UNL1        0.0159
      4 C         143.5653  140.3810  159.3580 C.ar    1  UNL1        0.0505
      5 C         143.5349  140.3769  157.8584 C.ar    1  UNL1        0.0159
      6 C         143.1757  139.1223  157.1189 C.ar    1  UNL1        0.0158
      7 N         141.7694  134.1078  155.6605 N.3     1  UNL1       -0.1559
      8 C         141.0266  135.3809  155.3825 C.3     1  UNL1        0.1168
      9 C         141.3858  136.6356  156.1221 C.3     1  UNL1        0.1099
     10 N         142.4878  136.6171  157.1395 N.pl3   1  UNL1       -0.3045
     11 C         143.2306  135.3439  157.4174 C.3     1  UNL1        0.1099
     12 C         142.8714  134.0893  156.6779 C.3     1  UNL1        0.1168
     13 S         141.4102  132.8532  154.9210 S.O2    1  UNL1        0.0465
     14 O         141.7928  132.0370  156.1199 O.2     1  UNL1       -0.1572
     15 O         141.0277  133.6694  153.7220 O.2     1  UNL1       -0.1572
     16 C         141.0510  131.5985  154.1815 C.3     1  UNL1        0.2010
     17 C         140.9079  130.3041  154.9257 C.3     1  UNL1        0.1693
     18 C         139.5525  128.1382  155.3970 C.3     1  UNL1        0.1742
     19 O         139.8501  129.3201  154.5224 O.3     1  UNL1       -0.3492
     20 N         143.9245  141.6356  160.0975 N.pl3   1  UNL1       -0.2825
     21 H         144.0537  142.4778  159.6043 H       1  UNL1        0.1551
     22 C         144.0869  141.6070  161.5884 C.ar    1  UNL1        0.2207
     23 N         145.4578  141.6631  162.1947 N.ar    1  UNL1       -0.2120
     24 C         145.6203  141.6345  163.6856 C.ar    1  UNL1        0.1034
     25 C         144.4118  141.5499  164.5702 C.ar    1  UNL1        0.0414
     26 C         143.0410  141.4938  163.9640 C.ar    1  UNL1        0.1030
     27 N         142.8785  141.5224  162.4730 N.ar    1  UNL1       -0.2120
     28 C         141.8326  141.4092  164.8486 C.ar    1  UNL1        0.0981
     29 C         140.8765  142.5265  165.1445 C.ar    1  UNL1        0.1188
     30 N         139.8211  142.0002  166.0714 N.ar    1  UNL1       -0.2293
     31 C         140.1249  140.5577  166.3484 C.ar    1  UNL1        0.1208
     32 C         139.3258  139.6412  167.2268 C.3     1  UNL1        0.0718
     33 N         141.3680  140.1924  165.5926 N.ar    1  UNL1       -0.3155
     34 C         142.0303  138.8466  165.5827 C.3     1  UNL1        0.0868
     35 C         143.2467  138.6030  166.4259 C.3     1  UNL1        0.0245
     36 C         141.4762  137.7442  164.7295 C.3     1  UNL1        0.0245
@<TRIPOS>BOND
     1    18    19    1
     2    19    17    1
     3    17    16    1
     4    16    13    1
     5    13    14    2
     6    13    15    2
     7    13     7    1
     8     7     8    1
     9     8     9    1
    10     9    10    1
    11    10     1    1
    12     1     2   ar
    13     2     3   ar
    14     3     4   ar
    15     4    20    1
    16    20    22    1
    17    22    23   ar
    18    23    24   ar
    19    24    25   ar
    20    25    26   ar
    21    26    28    1
    22    28    29   ar
    23    29    30   ar
    24    30    31   ar
    25    31    32    1
    26    31    33   ar
    27    33    34    1
    28    34    35    1
    29    34    36    1
    30    26    27   ar
    31     4     5   ar
    32     5     6   ar
    33    10    11    1
    34    11    12    1
    35    12     7    1
    36     6     1   ar
    37    27    22   ar
    38    33    28   ar
    39    20    21    1
@<TRIPOS>MOLECULE
*****
 36 39 0 0 0
SMALL
GASTEIGER

@<TRIPOS>ATOM
      1 C         142.3746  138.6657  163.7722 C.ar    1  UNL1        0.0480
      2 C         143.7500  138.8063  163.1905 C.ar    1  UNL1        0.0158
      3 C         143.9910  138.4776  161.7469 C.ar    1  UNL1        0.0159
      4 C         142.8566  138.0084  160.8850 C.ar    1  UNL1        0.0505
      5 C         141.4812  137.8678  161.4668 C.ar    1  UNL1        0.0159
      6 C         141.2402  138.1964  162.9103 C.ar    1  UNL1        0.0158
      7 N         141.6516  139.6517  168.1029 N.3     1  UNL1       -0.1559
      8 C         142.9673  139.0721  167.6752 C.3     1  UNL1        0.1168
      9 C         143.2083  138.7434  166.2316 C.3     1  UNL1        0.1099
     10 N         142.1336  138.9943  165.2158 N.pl3   1  UNL1       -0.3045
     11 C         140.8179  139.5739  165.6435 C.3     1  UNL1        0.1099
     12 C         140.5769  139.9026  167.0871 C.3     1  UNL1        0.1168
     13 S         141.4106  139.9803  169.5465 S.O2    1  UNL1        0.0465
     14 O         139.9338  139.8241  169.3355 O.2     1  UNL1       -0.1572
     15 O         142.8875  140.1365  169.7575 O.2     1  UNL1       -0.1572
     16 C         141.1696  140.3090  170.9901 C.3     1  UNL1        0.2010
     17 C         141.2572  141.7306  171.4603 C.3     1  UNL1        0.1693
     18 C         140.3100  143.6502  169.9878 C.3     1  UNL1        0.1742
     19 O         140.1568  142.6970  171.1359 O.3     1  UNL1       -0.3492
     20 N         143.0976  137.6797  159.4415 N.pl3   1  UNL1       -0.2825
     21 H         143.3148  136.7568  159.1764 H       1  UNL1        0.1551
     22 C         143.0076  138.7572  158.4018 C.ar    1  UNL1        0.2207
     23 N         143.2383  138.4265  156.9570 N.ar    1  UNL1       -0.2120
     24 C         143.1483  139.5039  155.9173 C.ar    1  UNL1        0.1034
     25 C         142.8276  140.9121  156.3224 C.ar    1  UNL1        0.0414
     26 C         142.5970  141.2429  157.7672 C.ar    1  UNL1        0.1030
     27 N         142.6870  140.1654  158.8069 N.ar    1  UNL1       -0.2120
     28 C         142.2764  142.6511  158.1723 C.ar    1  UNL1        0.0981
     29 C         142.9390  143.8914  157.6501 C.ar    1  UNL1        0.1188
     30 N         142.3090  145.0731  158.3258 N.ar    1  UNL1       -0.2293
     31 C         141.2569  144.5632  159.2656 C.ar    1  UNL1        0.1208
     32 C         140.3791  145.4028  160.1458 C.3     1  UNL1        0.0718
     33 N         141.2368  143.0664  159.1707 N.ar    1  UNL1       -0.3155
     34 C         140.3353  142.1463  159.9394 C.3     1  UNL1        0.0868
     35 C         139.0727  141.6357  159.3110 C.3     1  UNL1        0.0245
     36 C         140.6966  141.7367  161.3365 C.3     1  UNL1        0.0245
@<TRIPOS>BOND
     1    18    19    1
     2    19    17    1
     3    17    16    1
     4    16    13    1
     5    13    14    2
     6    13    15    2
     7    13     7    1
     8     7     8    1
     9     8     9    1
    10     9    10    1
    11    10     1    1
    12     1     2   ar
    13     2     3   ar
    14     3     4   ar
    15     4    20    1
    16    20    22    1
    17    22    23   ar
    18    23    24   ar
    19    24    25   ar
    20    25    26   ar
    21    26    28    1
    22    28    29   ar
    23    29    30   ar
    24    30    31   ar
    25    31    32    1
    26    31    33   ar
    27    33    34    1
    28    34    35    1
    29    34    36    1
    30    26    27   ar
    31     4     5   ar
    32     5     6   ar
    33    10    11    1
    34    11    12    1
    35    12     7    1
    36     6     1   ar
    37    27    22   ar
    38    33    28   ar
    39    20    21    1
@<TRIPOS>MOLECULE
*****
 36 39 0 0 0
SMALL
GASTEIGER

@<TRIPOS>ATOM
      1 C         142.8953  139.0074  163.2617 C.ar    1  UNL1        0.0480
      2 C         144.1054  139.3194  162.4321 C.ar    1  UNL1        0.0158
      3 C         144.1608  138.8910  160.9957 C.ar    1  UNL1        0.0159
      4 C         143.0061  138.1505  160.3888 C.ar    1  UNL1        0.0505
      5 C         141.7960  137.8384  161.2184 C.ar    1  UNL1        0.0159
      6 C         141.7406  138.2669  162.6549 C.ar    1  UNL1        0.0158
      7 N         142.7291  140.2928  167.5710 N.3     1  UNL1       -0.1559
      8 C         143.0311  138.8648  167.2254 C.3     1  UNL1        0.1168
      9 C         143.0865  138.4363  165.7890 C.3     1  UNL1        0.1099
     10 N         142.8399  139.4359  164.6982 N.pl3   1  UNL1       -0.3045
     11 C         142.5378  140.8639  165.0437 C.3     1  UNL1        0.1099
     12 C         142.4824  141.2924  166.4802 C.3     1  UNL1        0.1168
     13 S         142.6737  140.7213  169.0075 S.O2    1  UNL1        0.0465
     14 O         142.3622  142.1240  168.5770 O.2     1  UNL1       -0.1572
     15 O         142.9851  139.3185  169.4379 O.2     1  UNL1       -0.1572
     16 C         142.6183  141.1497  170.4439 C.3     1  UNL1        0.2010
     17 C         141.3505  140.9828  171.2280 C.3     1  UNL1        0.1693
     18 C         139.6979  142.9422  170.8039 C.3     1  UNL1        0.1742
     19 O         140.6117  142.1898  171.7253 O.3     1  UNL1       -0.3492
     20 N         143.0615  137.7220  158.9524 N.pl3   1  UNL1       -0.2825
     21 H         143.3268  136.8021  158.7230 H       1  UNL1        0.1551
     22 C         142.7126  138.6951  157.8655 C.ar    1  UNL1        0.2207
     23 N         143.7868  139.5288  157.2321 N.ar    1  UNL1       -0.2120
     24 C         143.4380  140.5018  156.1452 C.ar    1  UNL1        0.1034
     25 C         142.0150  140.6413  155.6917 C.ar    1  UNL1        0.0414
     26 C         140.9409  139.8077  156.3250 C.ar    1  UNL1        0.1030
     27 N         141.2897  138.8345  157.4120 N.ar    1  UNL1       -0.2120
     28 C         139.5179  139.9471  155.8715 C.ar    1  UNL1        0.0981
     29 C         138.9724  139.5291  154.5382 C.ar    1  UNL1        0.1188
     30 N         137.5079  139.8527  154.5144 N.ar    1  UNL1       -0.2293
     31 C         137.1483  140.4708  155.8330 C.ar    1  UNL1        0.1208
     32 C         135.7856  140.9469  156.2411 C.3     1  UNL1        0.0718
     33 N         138.3905  140.5291  156.6717 N.ar    1  UNL1       -0.3155
     34 C         138.4881  141.0738  158.0659 C.3     1  UNL1        0.0868
     35 C         138.7370  142.5368  158.2838 C.3     1  UNL1        0.0245
     36 C         138.3369  140.1554  159.2423 C.3     1  UNL1        0.0245
@<TRIPOS>BOND
     1    18    19    1
     2    19    17    1
     3    17    16    1
     4    16    13    1
     5    13    14    2
     6    13    15    2
     7    13     7    1
     8     7     8    1
     9     8     9    1
    10     9    10    1
    11    10     1    1
    12     1     2   ar
    13     2     3   ar
    14     3     4   ar
    15     4    20    1
    16    20    22    1
    17    22    23   ar
    18    23    24   ar
    19    24    25   ar
    20    25    26   ar
    21    26    28    1
    22    28    29   ar
    23    29    30   ar
    24    30    31   ar
    25    31    32    1
    26    31    33   ar
    27    33    34    1
    28    34    35    1
    29    34    36    1
    30    26    27   ar
    31     4     5   ar
    32     5     6   ar
    33    10    11    1
    34    11    12    1
    35    12     7    1
    36     6     1   ar
    37    27    22   ar
    38    33    28   ar
    39    20    21    1
@<TRIPOS>MOLECULE
*****
 36 39 0 0 0
SMALL
GASTEIGER

@<TRIPOS>ATOM
      1 C         143.9301  143.1709  161.8540 C.ar    1  UNL1        0.0480
      2 C         143.1332  144.1836  162.6216 C.ar    1  UNL1        0.0158
      3 C         143.2671  144.2693  164.1132 C.ar    1  UNL1        0.0159
      4 C         144.1981  143.3424  164.8371 C.ar    1  UNL1        0.0505
      5 C         144.9950  142.3297  164.0695 C.ar    1  UNL1        0.0159
      6 C         144.8611  142.2440  162.5779 C.ar    1  UNL1        0.0158
      7 N         143.5282  142.9138  157.3794 N.3     1  UNL1       -0.1559
      8 C         142.4295  143.5252  158.1972 C.3     1  UNL1        0.1168
      9 C         142.5635  143.6109  159.6887 C.3     1  UNL1        0.1099
     10 N         143.7962  143.0852  160.3625 N.pl3   1  UNL1       -0.3045
     11 C         144.8949  142.4738  159.5447 C.3     1  UNL1        0.1099
     12 C         144.7610  142.3881  158.0531 C.3     1  UNL1        0.1168
     13 S         143.3943  142.8280  155.8878 S.O2    1  UNL1        0.0465
     14 O         143.9684  141.4425  155.9159 O.2     1  UNL1       -0.1572
     15 O         142.8202  144.2136  155.8598 O.2     1  UNL1       -0.1572
     16 C         143.2603  142.7423  154.3963 C.3     1  UNL1        0.2010
     17 C         144.2404  143.4558  153.5130 C.3     1  UNL1        0.1693
     18 C         146.4358  144.8452  153.5242 C.3     1  UNL1        0.1742
     19 O         145.6600  143.6383  153.9619 O.3     1  UNL1       -0.3492
     20 N         144.3320  143.4281  166.3286 N.pl3   1  UNL1       -0.2825
     21 H         144.9950  144.0357  166.7292 H       1  UNL1        0.1551
     22 C         143.4559  142.5880  167.2099 C.ar    1  UNL1        0.2207
     23 N         143.6440  142.6134  168.6978 N.ar    1  UNL1       -0.2120
     24 C         142.7679  141.7734  169.5791 C.ar    1  UNL1        0.1034
     25 C         141.7036  140.9078  168.9724 C.ar    1  UNL1        0.0414
     26 C         141.5154  140.8824  167.4845 C.ar    1  UNL1        0.1030
     27 N         142.3916  141.7225  166.6032 N.ar    1  UNL1       -0.2120
     28 C         140.4511  140.0168  166.8778 C.ar    1  UNL1        0.0981
     29 C         139.1188  139.6986  167.4891 C.ar    1  UNL1        0.1188
     30 N         138.3764  138.8027  166.5424 N.ar    1  UNL1       -0.2293
     31 C         139.2500  138.5671  165.3460 C.ar    1  UNL1        0.1208
     32 C         138.9024  137.7284  164.1520 C.3     1  UNL1        0.0718
     33 N         140.5321  139.3175  165.5533 N.ar    1  UNL1       -0.3155
     34 C         141.6918  139.3609  164.6029 C.3     1  UNL1        0.0868
     35 C         141.6376  140.2465  163.3935 C.3     1  UNL1        0.0245
     36 C         142.9058  138.5187  164.8619 C.3     1  UNL1        0.0245
@<TRIPOS>BOND
     1    18    19    1
     2    19    17    1
     3    17    16    1
     4    16    13    1
     5    13    14    2
     6    13    15    2
     7    13     7    1
     8     7     8    1
     9     8     9    1
    10     9    10    1
    11    10     1    1
    12     1     2   ar
    13     2     3   ar
    14     3     4   ar
    15     4    20    1
    16    20    22    1
    17    22    23   ar
    18    23    24   ar
    19    24    25   ar
    20    25    26   ar
    21    26    28    1
    22    28    29   ar
    23    29    30   ar
    24    30    31   ar
    25    31    32    1
    26    31    33   ar
    27    33    34    1
    28    34    35    1
    29    34    36    1
    30    26    27   ar
    31     4     5   ar
    32     5     6   ar
    33    10    11    1
    34    11    12    1
    35    12     7    1
    36     6     1   ar
    37    27    22   ar
    38    33    28   ar
    39    20    21    1
@<TRIPOS>MOLECULE
*****
 36 39 0 0 0
SMALL
GASTEIGER

@<TRIPOS>ATOM
      1 C         141.8836  142.9576  164.1295 C.ar    1  UNL1        0.0480
      2 C         142.0699  142.3301  162.7799 C.ar    1  UNL1        0.0158
      3 C         141.9383  143.1643  161.5402 C.ar    1  UNL1        0.0159
      4 C         141.6205  144.6261  161.6501 C.ar    1  UNL1        0.0505
      5 C         141.4342  145.2537  162.9997 C.ar    1  UNL1        0.0159
      6 C         141.5657  144.4194  164.2394 C.ar    1  UNL1        0.0158
      7 N         142.2781  140.4549  167.8484 N.3     1  UNL1       -0.1559
      8 C         143.1067  141.6948  167.6874 C.3     1  UNL1        0.1168
      9 C         142.9752  142.5291  166.4478 C.3     1  UNL1        0.1099
     10 N         142.0151  142.1234  165.3691 N.pl3   1  UNL1       -0.3045
     11 C         141.1865  140.8835  165.5301 C.3     1  UNL1        0.1099
     12 C         141.3180  140.0493  166.7698 C.3     1  UNL1        0.1168
     13 S         142.4096  139.6207  169.0881 S.O2    1  UNL1        0.0465
     14 O         141.5883  140.6199  169.8477 O.2     1  UNL1       -0.1572
     15 O         143.2309  138.6215  168.3285 O.2     1  UNL1       -0.1572
     16 C         142.5411  138.7864  170.3277 C.3     1  UNL1        0.2010
     17 C         143.3451  137.5205  170.2980 C.3     1  UNL1        0.1693
     18 C         144.8964  136.0332  171.7580 C.3     1  UNL1        0.1742
     19 O         144.5468  137.3742  171.1838 O.3     1  UNL1       -0.3492
     20 N         141.4890  145.4604  160.4105 N.pl3   1  UNL1       -0.2825
     21 H         141.4359  146.4409  160.4804 H       1  UNL1        0.1551
     22 C         141.4384  144.8006  159.0644 C.ar    1  UNL1        0.2207
     23 N         142.7107  144.4114  158.3716 N.ar    1  UNL1       -0.2120
     24 C         142.6602  143.7517  157.0254 C.ar    1  UNL1        0.1034
     25 C         141.3374  143.4811  156.3720 C.ar    1  UNL1        0.0414
     26 C         140.0651  143.8702  157.0647 C.ar    1  UNL1        0.1030
     27 N         140.1156  144.5300  158.4109 N.ar    1  UNL1       -0.2120
     28 C         138.7423  143.5996  156.4113 C.ar    1  UNL1        0.0981
     29 C         137.9863  144.5455  155.5260 C.ar    1  UNL1        0.1188
     30 N         136.7200  143.8661  155.0960 N.ar    1  UNL1       -0.2293
     31 C         136.6934  142.5003  155.7156 C.ar    1  UNL1        0.1208
     32 C         135.6075  141.4785  155.5512 C.3     1  UNL1        0.0718
     33 N         137.9432  142.3356  156.5285 N.ar    1  UNL1       -0.3155
     34 C         138.3266  141.1203  157.3196 C.3     1  UNL1        0.0868
     35 C         138.1374  141.1034  158.8075 C.3     1  UNL1        0.0245
     36 C         138.8993  139.9216  156.6228 C.3     1  UNL1        0.0245
@<TRIPOS>BOND
     1    18    19    1
     2    19    17    1
     3    17    16    1
     4    16    13    1
     5    13    14    2
     6    13    15    2
     7    13     7    1
     8     7     8    1
     9     8     9    1
    10     9    10    1
    11    10     1    1
    12     1     2   ar
    13     2     3   ar
    14     3     4   ar
    15     4    20    1
    16    20    22    1
    17    22    23   ar
    18    23    24   ar
    19    24    25   ar
    20    25    26   ar
    21    26    28    1
    22    28    29   ar
    23    29    30   ar
    24    30    31   ar
    25    31    32    1
    26    31    33   ar
    27    33    34    1
    28    34    35    1
    29    34    36    1
    30    26    27   ar
    31     4     5   ar
    32     5     6   ar
    33    10    11    1
    34    11    12    1
    35    12     7    1
    36     6     1   ar
    37    27    22   ar
    38    33    28   ar
    39    20    21    1
@<TRIPOS>MOLECULE
*****
 36 39 0 0 0
SMALL
GASTEIGER

@<TRIPOS>ATOM
      1 C         142.8713  137.8792  158.2526 C.ar    1  UNL1        0.0480
      2 C         142.9576  137.5410  159.7114 C.ar    1  UNL1        0.0158
      3 C         143.3229  138.6018  160.7069 C.ar    1  UNL1        0.0159
      4 C         143.6019  140.0010  160.2437 C.ar    1  UNL1        0.0505
      5 C         143.5155  140.3392  158.7849 C.ar    1  UNL1        0.0159
      6 C         143.1502  139.2783  157.7894 C.ar    1  UNL1        0.0158
      7 N         141.7754  134.6965  155.2661 N.3     1  UNL1       -0.1559
      8 C         142.9406  134.4906  156.1879 C.3     1  UNL1        0.1168
      9 C         143.3059  135.5515  157.1834 C.3     1  UNL1        0.1099
     10 N         142.5060  136.8183  157.2571 N.pl3   1  UNL1       -0.3045
     11 C         141.3408  137.0241  156.3352 C.3     1  UNL1        0.1099
     12 C         140.9755  135.9632  155.3397 C.3     1  UNL1        0.1168
     13 S         141.4101  133.6356  154.2705 S.O2    1  UNL1        0.0465
     14 O         141.0479  132.7078  155.3921 O.2     1  UNL1       -0.1572
     15 O         141.7723  134.5634  153.1489 O.2     1  UNL1       -0.1572
     16 C         141.0448  132.5747  153.2750 C.3     1  UNL1        0.2010
     17 C         142.1211  131.7800  152.5969 C.3     1  UNL1        0.1693
     18 C         143.5886  130.4408  154.2711 C.3     1  UNL1        0.1742
     19 O         143.4363  131.5597  153.2836 O.3     1  UNL1       -0.3492
     20 N         143.9672  141.0618  161.2392 N.pl3   1  UNL1       -0.2825
     21 H         144.9079  141.3304  161.3495 H       1  UNL1        0.1551
     22 C         142.8992  141.7135  162.0667 C.ar    1  UNL1        0.2207
     23 N         142.4796  143.1236  161.7743 N.ar    1  UNL1       -0.2120
     24 C         141.4117  143.7753  162.6018 C.ar    1  UNL1        0.1034
     25 C         140.7633  143.0168  163.7218 C.ar    1  UNL1        0.0414
     26 C         141.1828  141.6067  164.0142 C.ar    1  UNL1        0.1030
     27 N         142.2508  140.9550  163.1867 N.ar    1  UNL1       -0.2120
     28 C         140.5344  140.8482  165.1342 C.ar    1  UNL1        0.0981
     29 C         141.0375  140.7568  166.5444 C.ar    1  UNL1        0.1188
     30 N         140.0831  139.9001  167.3223 N.ar    1  UNL1       -0.2293
     31 C         138.9902  139.4620  166.3930 C.ar    1  UNL1        0.1208
     32 C         137.8233  138.5910  166.7527 C.3     1  UNL1        0.0718
     33 N         139.2692  140.0480  165.0406 N.ar    1  UNL1       -0.3155
     34 C         138.4301  139.8658  163.8107 C.3     1  UNL1        0.0868
     35 C         137.5090  140.9612  163.3620 C.3     1  UNL1        0.0245
     36 C         138.5123  138.5879  163.0293 C.3     1  UNL1        0.0245
@<TRIPOS>BOND
     1    18    19    1
     2    19    17    1
     3    17    16    1
     4    16    13    1
     5    13    14    2
     6    13    15    2
     7    13     7    1
     8     7     8    1
     9     8     9    1
    10     9    10    1
    11    10     1    1
    12     1     2   ar
    13     2     3   ar
    14     3     4   ar
    15     4    20    1
    16    20    22    1
    17    22    23   ar
    18    23    24   ar
    19    24    25   ar
    20    25    26   ar
    21    26    28    1
    22    28    29   ar
    23    29    30   ar
    24    30    31   ar
    25    31    32    1
    26    31    33   ar
    27    33    34    1
    28    34    35    1
    29    34    36    1
    30    26    27   ar
    31     4     5   ar
    32     5     6   ar
    33    10    11    1
    34    11    12    1
    35    12     7    1
    36     6     1   ar
    37    27    22   ar
    38    33    28   ar
    39    20    21    1
@<TRIPOS>MOLECULE
*****
 36 39 0 0 0
SMALL
GASTEIGER

@<TRIPOS>ATOM
      1 C         142.3460  138.9642  159.1125 C.ar    1  UNL1        0.0480
      2 C         140.8539  139.0510  158.9854 C.ar    1  UNL1        0.0158
      3 C         139.9771  138.5884  160.1111 C.ar    1  UNL1        0.0159
      4 C         140.5924  138.0390  161.3639 C.ar    1  UNL1        0.0505
      5 C         142.0844  137.9522  161.4910 C.ar    1  UNL1        0.0159
      6 C         142.9612  138.4148  160.3653 C.ar    1  UNL1        0.0158
      7 N         144.9764  140.3520  155.7354 N.3     1  UNL1       -0.1559
      8 C         145.0292  141.0492  157.0624 C.3     1  UNL1        0.1168
      9 C         144.1524  140.5866  158.1881 C.3     1  UNL1        0.1099
     10 N         143.2228  139.4268  157.9868 N.pl3   1  UNL1       -0.3045
     11 C         143.1700  138.7296  156.6597 C.3     1  UNL1        0.1099
     12 C         144.0468  139.1922  155.5340 C.3     1  UNL1        0.1168
     13 S         145.8532  140.8146  154.6097 S.O2    1  UNL1        0.0465
     14 O         145.4078  139.6454  153.7822 O.2     1  UNL1       -0.1572
     15 O         146.2987  141.9838  155.4371 O.2     1  UNL1       -0.1572
     16 C         146.7300  141.2772  153.4839 C.3     1  UNL1        0.2010
     17 C         147.9152  142.1519  153.7671 C.3     1  UNL1        0.1693
     18 C         150.1386  141.6102  154.9973 C.3     1  UNL1        0.1742
     19 O         149.2973  141.5691  153.7560 O.3     1  UNL1       -0.3492
     20 N         139.7156  137.5764  162.4896 N.pl3   1  UNL1       -0.2825
     21 H         139.3462  136.6638  162.4828 H       1  UNL1        0.1551
     22 C         139.4016  138.5041  163.6257 C.ar    1  UNL1        0.2207
     23 N         138.7584  137.9726  164.8722 N.ar    1  UNL1       -0.2120
     24 C         138.4444  138.9003  166.0083 C.ar    1  UNL1        0.1034
     25 C         138.7737  140.3596  165.8979 C.ar    1  UNL1        0.0414
     26 C         139.4169  140.8911  164.6515 C.ar    1  UNL1        0.1030
     27 N         139.7309  139.9633  163.5153 N.ar    1  UNL1       -0.2120
     28 C         139.7462  142.3503  164.5411 C.ar    1  UNL1        0.0981
     29 C         138.8099  143.4889  164.8185 C.ar    1  UNL1        0.1188
     30 N         139.5545  144.7695  164.5828 N.ar    1  UNL1       -0.2293
     31 C         140.9511  144.4224  164.1596 C.ar    1  UNL1        0.1208
     32 C         142.0384  145.3988  163.8216 C.3     1  UNL1        0.0718
     33 N         141.0695  142.9273  164.1339 N.ar    1  UNL1       -0.3155
     34 C         142.2960  142.1462  163.7655 C.3     1  UNL1        0.0868
     35 C         142.5458  141.7729  162.3345 C.3     1  UNL1        0.0245
     36 C         143.2729  141.7385  164.8285 C.3     1  UNL1        0.0245
@<TRIPOS>BOND
     1    18    19    1
     2    19    17    1
     3    17    16    1
     4    16    13    1
     5    13    14    2
     6    13    15    2
     7    13     7    1
     8     7     8    1
     9     8     9    1
    10     9    10    1
    11    10     1    1
    12     1     2   ar
    13     2     3   ar
    14     3     4   ar
    15     4    20    1
    16    20    22    1
    17    22    23   ar
    18    23    24   ar
    19    24    25   ar
    20    25    26   ar
    21    26    28    1
    22    28    29   ar
    23    29    30   ar
    24    30    31   ar
    25    31    32    1
    26    31    33   ar
    27    33    34    1
    28    34    35    1
    29    34    36    1
    30    26    27   ar
    31     4     5   ar
    32     5     6   ar
    33    10    11    1
    34    11    12    1
    35    12     7    1
    36     6     1   ar
    37    27    22   ar
    38    33    28   ar
    39    20    21    1
@<TRIPOS>MOLECULE
*****
 36 39 0 0 0
SMALL
GASTEIGER

@<TRIPOS>ATOM
      1 C         141.8249  138.8334  157.6055 C.ar    1  UNL1        0.0480
      2 C         143.0761  139.5053  158.0879 C.ar    1  UNL1        0.0158
      3 C         143.0107  140.8901  158.6608 C.ar    1  UNL1        0.0159
      4 C         141.6940  141.6029  158.7512 C.ar    1  UNL1        0.0505
      5 C         140.4428  140.9309  158.2688 C.ar    1  UNL1        0.0159
      6 C         140.5082  139.5462  157.6959 C.ar    1  UNL1        0.0158
      7 N         142.0212  134.6791  155.8869 N.3     1  UNL1       -0.1559
      8 C         143.0138  135.1084  156.9262 C.3     1  UNL1        0.1168
      9 C         142.9483  136.4932  157.4991 C.3     1  UNL1        0.1099
     10 N         141.8903  137.4486  157.0326 N.pl3   1  UNL1       -0.3045
     11 C         140.8977  137.0193  155.9932 C.3     1  UNL1        0.1099
     12 C         140.9631  135.6345  155.4204 C.3     1  UNL1        0.1168
     13 S         142.0866  133.2944  155.3140 S.O2    1  UNL1        0.0465
     14 O         141.8940  133.8552  153.9362 O.2     1  UNL1       -0.1572
     15 O         142.2792  132.7335  156.6918 O.2     1  UNL1       -0.1572
     16 C         142.1520  131.9096  154.7411 C.3     1  UNL1        0.2010
     17 C         143.4362  131.3991  154.1579 C.3     1  UNL1        0.1693
     18 C         144.2641  129.8141  156.0427 C.3     1  UNL1        0.1742
     19 O         144.5316  130.9176  155.0625 O.3     1  UNL1       -0.3492
     20 N         141.6286  142.9876  159.3241 N.pl3   1  UNL1       -0.2825
     21 H         141.5032  143.7614  158.7284 H       1  UNL1        0.1551
     22 C         141.7541  143.1935  160.8045 C.ar    1  UNL1        0.2207
     23 N         142.3815  144.4478  161.3368 N.ar    1  UNL1       -0.2120
     24 C         142.5071  144.6537  162.8173 C.ar    1  UNL1        0.1034
     25 C         142.0052  143.6053  163.7655 C.ar    1  UNL1        0.0414
     26 C         141.3778  142.3511  163.2333 C.ar    1  UNL1        0.1030
     27 N         141.2523  142.1452  161.7528 N.ar    1  UNL1       -0.2120
     28 C         140.8760  141.3028  164.1816 C.ar    1  UNL1        0.0981
     29 C         141.7218  140.3296  164.9481 C.ar    1  UNL1        0.1188
     30 N         140.8088  139.4690  165.7700 N.ar    1  UNL1       -0.2293
     31 C         139.3987  139.9102  165.5116 C.ar    1  UNL1        0.1208
     32 C         138.1638  139.3215  166.1268 C.3     1  UNL1        0.0718
     33 N         139.4402  141.0436  164.5299 N.ar    1  UNL1       -0.3155
     34 C         138.2541  141.7872  163.9910 C.3     1  UNL1        0.0868
     35 C         137.4069  141.1710  162.9176 C.3     1  UNL1        0.0245
     36 C         137.9153  143.1472  164.5257 C.3     1  UNL1        0.0245
@<TRIPOS>BOND
     1    18    19    1
     2    19    17    1
     3    17    16    1
     4    16    13    1
     5    13    14    2
     6    13    15    2
     7    13     7    1
     8     7     8    1
     9     8     9    1
    10     9    10    1
    11    10     1    1
    12     1     2   ar
    13     2     3   ar
    14     3     4   ar
    15     4    20    1
    16    20    22    1
    17    22    23   ar
    18    23    24   ar
    19    24    25   ar
    20    25    26   ar
    21    26    28    1
    22    28    29   ar
    23    29    30   ar
    24    30    31   ar
    25    31    32    1
    26    31    33   ar
    27    33    34    1
    28    34    35    1
    29    34    36    1
    30    26    27   ar
    31     4     5   ar
    32     5     6   ar
    33    10    11    1
    34    11    12    1
    35    12     7    1
    36     6     1   ar
    37    27    22   ar
    38    33    28   ar
    39    20    21    1
