@<TRIPOS>MOLECULE
*****
 33 38 0 0 0
SMALL
GASTEIGER

@<TRIPOS>ATOM
      1 C         142.5693  136.7433  157.7832 C.3     1  UNL1        0.1161
      2 C         143.2916  135.4438  157.5839 C.3     1  UNL1        0.0510
      3 C         142.9431  134.5627  156.4211 C.2     1  UNL1       -0.0044
      4 C         141.8724  134.9811  155.4575 C.2     1  UNL1        0.0689
      5 N         141.7468  133.9131  154.4118 N.2     1  UNL1       -0.2526
      6 C         142.7399  132.8346  154.7291 C.2     1  UNL1        0.0627
      7 C         143.0664  131.5388  154.0477 C.3     1  UNL1        0.0717
      8 C         144.1323  130.6446  154.6081 C.2     1  UNL1       -0.0198
      9 C         144.8717  131.0461  155.8499 C.2     1  UNL1       -0.0042
     10 C         144.5452  132.3419  156.5313 C.2     1  UNL1        0.0006
     11 C         143.4793  133.2361  155.9709 C.2     1  UNL1        0.0111
     12 C         141.1501  136.2806  155.6568 C.3     1  UNL1        0.0949
     13 N         141.4986  137.1617  156.8196 N.3     1  UNL1       -0.2887
     14 H         140.6442  137.2832  157.3634 H       1  UNL1        0.1239
     15 C         143.2327  138.4426  161.2092 C.ar    1  UNL1        0.0769
     16 C         143.6756  139.5178  160.2618 C.ar    1  UNL1        0.1171
     17 N         143.4810  139.0122  158.8631 N.ar    1  UNL1       -0.2282
     18 C         142.9179  137.6244  158.9461 C.ar    1  UNL1        0.1318
     19 N         142.7644  137.2723  160.3960 N.ar    1  UNL1       -0.3397
     20 H         142.4172  136.4224  160.7515 H       1  UNL1        0.1671
     21 F         143.3190  138.7654  167.2000 F       1  UNL1       -0.2042
     22 C         143.2974  138.6847  165.7022 C.ar    1  UNL1        0.1401
     23 C         142.1411  138.0338  165.0028 C.ar    1  UNL1        0.0297
     24 C         142.1195  137.9531  163.5052 C.ar    1  UNL1        0.0038
     25 C         143.2543  138.5233  162.7070 C.ar    1  UNL1        0.0173
     26 C         144.4106  139.1742  163.4064 C.ar    1  UNL1        0.0038
     27 C         144.4322  139.2549  164.9040 C.ar    1  UNL1        0.0297
     28 C         140.0794  136.6990  154.6932 C.3     1  UNL1        0.0252
     29 C         140.3402  136.6551  153.2168 C.3     1  UNL1        0.0339
     30 C         139.2693  137.0735  152.2533 C.3     1  UNL1        0.1422
     31 O         137.9378  137.5358  152.7662 O.3     1  UNL1       -0.3538
     32 C         137.6769  137.5797  154.2427 C.3     1  UNL1        0.1422
     33 C         138.7477  137.1613  155.2062 C.3     1  UNL1        0.0339
@<TRIPOS>BOND
     1    21    22    1
     2    22    23   ar
     3    23    24   ar
     4    24    25   ar
     5    25    15    1
     6    15    16   ar
     7    16    17   ar
     8    17    18   ar
     9     1    18    1
    10     1     2    1
    11     2     3    1
    12     3     4    2
    13     4     5    1
    14     5     6    2
    15     6     7    1
    16     7     8    1
    17     8     9    2
    18     9    10    1
    19    10    11    2
    20     4    12    1
    21    12    28    1
    22    28    29    1
    23    29    30    1
    24    30    31    1
    25    31    32    1
    26    32    33    1
    27    12    13    1
    28    18    19   ar
    29    25    26   ar
    30    26    27   ar
    31    27    22   ar
    32    19    15   ar
    33    13     1    1
    34    11     3    1
    35    33    28    1
    36    11     6    1
    37    13    14    1
    38    19    20    1
@<TRIPOS>MOLECULE
*****
 33 38 0 0 0
SMALL
GASTEIGER

@<TRIPOS>ATOM
      1 C         139.3780  139.7053  157.6173 C.3     1  UNL1        0.1161
      2 C         139.0599  139.6181  159.0806 C.3     1  UNL1        0.0510
      3 C         138.7334  140.8620  159.8526 C.2     1  UNL1       -0.0044
      4 C         138.7249  142.1931  159.1613 C.2     1  UNL1        0.0689
      5 N         138.3683  143.2396  160.1751 N.2     1  UNL1       -0.2526
      6 C         138.1564  142.5552  161.4929 C.2     1  UNL1        0.0627
      7 C         137.7871  143.0802  162.8486 C.3     1  UNL1        0.0717
      8 C         137.6435  142.1357  164.0050 C.2     1  UNL1       -0.0198
      9 C         137.8691  140.6662  163.8057 C.2     1  UNL1       -0.0042
     10 C         138.2384  140.1412  162.4500 C.2     1  UNL1        0.0006
     11 C         138.3820  141.0857  161.2936 C.2     1  UNL1        0.0111
     12 C         139.0430  142.2804  157.6980 C.3     1  UNL1        0.0949
     13 N         139.3695  141.0365  156.9260 N.3     1  UNL1       -0.2887
     14 H         140.3012  141.1701  156.5328 H       1  UNL1        0.1239
     15 C         140.8201  136.4471  156.0778 C.ar    1  UNL1        0.0769
     16 C         139.5942  136.6472  155.2368 C.ar    1  UNL1        0.1171
     17 N         138.9048  137.8921  155.7111 N.ar    1  UNL1       -0.2282
     18 C         139.7046  138.4613  156.8452 C.ar    1  UNL1        0.1318
     19 N         140.8883  137.5684  157.0719 N.ar    1  UNL1       -0.3397
     20 H         141.5872  137.6958  157.7535 H       1  UNL1        0.1671
     21 F         144.7592  131.9513  155.5572 F       1  UNL1       -0.2042
     22 C         143.7744  133.0753  155.6874 C.ar    1  UNL1        0.1401
     23 C         143.9438  134.0991  156.7704 C.ar    1  UNL1        0.0297
     24 C         142.9590  135.2231  156.9005 C.ar    1  UNL1        0.0038
     25 C         141.8049  135.3231  155.9476 C.ar    1  UNL1        0.0173
     26 C         141.6355  134.2992  154.8646 C.ar    1  UNL1        0.0038
     27 C         142.6203  133.1753  154.7345 C.ar    1  UNL1        0.0297
     28 C         139.0345  143.6116  157.0067 C.3     1  UNL1        0.0252
     29 C         138.0726  143.8679  155.8847 C.3     1  UNL1        0.0339
     30 C         138.0642  145.1992  155.1934 C.3     1  UNL1        0.1422
     31 O         139.0176  146.2740  155.6242 O.3     1  UNL1       -0.3538
     32 C         139.9796  146.0177  156.7462 C.3     1  UNL1        0.1422
     33 C         139.9880  144.6865  157.4374 C.3     1  UNL1        0.0339
@<TRIPOS>BOND
     1    21    22    1
     2    22    23   ar
     3    23    24   ar
     4    24    25   ar
     5    25    15    1
     6    15    16   ar
     7    16    17   ar
     8    17    18   ar
     9     1    18    1
    10     1     2    1
    11     2     3    1
    12     3     4    2
    13     4     5    1
    14     5     6    2
    15     6     7    1
    16     7     8    1
    17     8     9    2
    18     9    10    1
    19    10    11    2
    20     4    12    1
    21    12    28    1
    22    28    29    1
    23    29    30    1
    24    30    31    1
    25    31    32    1
    26    32    33    1
    27    12    13    1
    28    18    19   ar
    29    25    26   ar
    30    26    27   ar
    31    27    22   ar
    32    19    15   ar
    33    13     1    1
    34    11     3    1
    35    33    28    1
    36    11     6    1
    37    13    14    1
    38    19    20    1
@<TRIPOS>MOLECULE
*****
 33 38 0 0 0
SMALL
GASTEIGER

@<TRIPOS>ATOM
      1 C         141.3207  138.8399  158.5573 C.3     1  UNL1        0.1161
      2 C         142.3660  139.9092  158.4391 C.3     1  UNL1        0.0510
      3 C         143.4396  139.7967  157.3977 C.2     1  UNL1       -0.0044
      4 C         143.4680  138.6148  156.4744 C.2     1  UNL1        0.0689
      5 N         144.6402  138.7750  155.5524 N.2     1  UNL1       -0.2526
      6 C         145.3364  140.0558  155.9057 C.2     1  UNL1        0.0627
      7 C         146.5500  140.7286  155.3364 C.3     1  UNL1        0.0717
      8 C         147.0217  142.0330  155.9075 C.2     1  UNL1       -0.0198
      9 C         146.2797  142.6644  157.0480 C.2     1  UNL1       -0.0042
     10 C         145.0660  141.9916  157.6173 C.2     1  UNL1        0.0006
     11 C         144.5944  140.6872  157.0462 C.2     1  UNL1        0.0111
     12 C         142.4226  137.5455  156.5926 C.3     1  UNL1        0.0949
     13 N         141.3490  137.6580  157.6341 N.3     1  UNL1       -0.2887
     14 H         141.4203  136.8272  158.2214 H       1  UNL1        0.1239
     15 C         139.1007  138.9873  161.7378 C.ar    1  UNL1        0.0769
     16 C         138.0893  139.2641  160.6653 C.ar    1  UNL1        0.1171
     17 N         138.7978  139.2426  159.3433 N.ar    1  UNL1       -0.2282
     18 C         140.2470  138.9525  159.5988 C.ar    1  UNL1        0.1318
     19 N         140.4343  138.7947  161.0787 N.ar    1  UNL1       -0.3397
     20 H         141.2835  138.5990  161.5369 H       1  UNL1        0.1671
     21 F         138.0047  138.7008  167.6299 F       1  UNL1       -0.2042
     22 C         138.2787  138.7724  166.1568 C.ar    1  UNL1        0.1401
     23 C         138.1330  140.0761  165.4294 C.ar    1  UNL1        0.0297
     24 C         138.4071  140.1477  163.9564 C.ar    1  UNL1        0.0038
     25 C         138.8267  138.9156  163.2109 C.ar    1  UNL1        0.0173
     26 C         138.9724  137.6119  163.9383 C.ar    1  UNL1        0.0038
     27 C         138.6984  137.5403  165.4112 C.ar    1  UNL1        0.0297
     28 C         142.4510  136.3636  155.6694 C.3     1  UNL1        0.0252
     29 C         142.9587  135.0404  156.1603 C.3     1  UNL1        0.0339
     30 C         142.9870  133.8585  155.2370 C.3     1  UNL1        0.1422
     31 O         142.5075  134.0000  153.8227 O.3     1  UNL1       -0.3538
     32 C         141.9997  135.3233  153.3318 C.3     1  UNL1        0.1422
     33 C         141.9715  136.5051  154.2550 C.3     1  UNL1        0.0339
@<TRIPOS>BOND
     1    21    22    1
     2    22    23   ar
     3    23    24   ar
     4    24    25   ar
     5    25    15    1
     6    15    16   ar
     7    16    17   ar
     8    17    18   ar
     9     1    18    1
    10     1     2    1
    11     2     3    1
    12     3     4    2
    13     4     5    1
    14     5     6    2
    15     6     7    1
    16     7     8    1
    17     8     9    2
    18     9    10    1
    19    10    11    2
    20     4    12    1
    21    12    28    1
    22    28    29    1
    23    29    30    1
    24    30    31    1
    25    31    32    1
    26    32    33    1
    27    12    13    1
    28    18    19   ar
    29    25    26   ar
    30    26    27   ar
    31    27    22   ar
    32    19    15   ar
    33    13     1    1
    34    11     3    1
    35    33    28    1
    36    11     6    1
    37    13    14    1
    38    19    20    1
@<TRIPOS>MOLECULE
*****
 33 38 0 0 0
SMALL
GASTEIGER

@<TRIPOS>ATOM
      1 C         143.2246  142.9620  157.4359 C.3     1  UNL1        0.1161
      2 C         143.2980  143.2454  158.9071 C.3     1  UNL1        0.0510
      3 C         142.1389  143.8932  159.6048 C.2     1  UNL1       -0.0044
      4 C         140.9065  144.2577  158.8314 C.2     1  UNL1        0.0689
      5 N         139.9295  144.8816  159.7833 N.2     1  UNL1       -0.2526
      6 C         140.5581  144.9028  161.1451 C.2     1  UNL1        0.0627
      7 C         140.0636  145.3994  162.4712 C.3     1  UNL1        0.0717
      8 C         140.9345  145.2851  163.6871 C.2     1  UNL1       -0.0198
      9 C         142.3000  144.6742  163.5768 C.2     1  UNL1       -0.0042
     10 C         142.7946  144.1776  162.2506 C.2     1  UNL1        0.0006
     11 C         141.9237  144.2919  161.0348 C.2     1  UNL1        0.0111
     12 C         140.8331  143.9743  157.3602 C.3     1  UNL1        0.0949
     13 N         141.9922  143.3265  156.6625 N.3     1  UNL1       -0.2887
     14 H         142.2862  143.9659  155.9242 H       1  UNL1        0.1239
     15 C         146.4981  141.9866  155.5925 C.ar    1  UNL1        0.0769
     16 C         145.8367  140.6480  155.7366 C.ar    1  UNL1        0.1171
     17 N         144.5300  140.8504  156.4446 N.ar    1  UNL1       -0.2282
     18 C         144.3838  142.3141  156.7382 C.ar    1  UNL1        0.1318
     19 N         145.6001  143.0163  156.2116 N.ar    1  UNL1       -0.3397
     20 H         145.7779  143.9833  156.2632 H       1  UNL1        0.1671
     21 F         151.8041  143.0376  152.9959 F       1  UNL1       -0.2042
     22 C         150.4776  142.7748  153.6451 C.ar    1  UNL1        0.1401
     23 C         149.2402  143.4393  153.1185 C.ar    1  UNL1        0.0297
     24 C         147.9138  143.1765  153.7677 C.ar    1  UNL1        0.0038
     25 C         147.8247  142.2493  154.9434 C.ar    1  UNL1        0.0173
     26 C         149.0621  141.5848  155.4699 C.ar    1  UNL1        0.0038
     27 C         150.3885  141.8476  154.8208 C.ar    1  UNL1        0.0297
     28 C         139.6007  144.3388  156.5867 C.3     1  UNL1        0.0252
     29 C         139.4822  145.6968  155.9609 C.3     1  UNL1        0.0339
     30 C         138.2497  146.0612  155.1874 C.3     1  UNL1        0.1422
     31 O         137.1357  145.0676  155.0398 O.3     1  UNL1       -0.3538
     32 C         137.2542  143.7095  155.6657 C.3     1  UNL1        0.1422
     33 C         138.4866  143.3452  156.4391 C.3     1  UNL1        0.0339
@<TRIPOS>BOND
     1    21    22    1
     2    22    23   ar
     3    23    24   ar
     4    24    25   ar
     5    25    15    1
     6    15    16   ar
     7    16    17   ar
     8    17    18   ar
     9     1    18    1
    10     1     2    1
    11     2     3    1
    12     3     4    2
    13     4     5    1
    14     5     6    2
    15     6     7    1
    16     7     8    1
    17     8     9    2
    18     9    10    1
    19    10    11    2
    20     4    12    1
    21    12    28    1
    22    28    29    1
    23    29    30    1
    24    30    31    1
    25    31    32    1
    26    32    33    1
    27    12    13    1
    28    18    19   ar
    29    25    26   ar
    30    26    27   ar
    31    27    22   ar
    32    19    15   ar
    33    13     1    1
    34    11     3    1
    35    33    28    1
    36    11     6    1
    37    13    14    1
    38    19    20    1
@<TRIPOS>MOLECULE
*****
 33 38 0 0 0
SMALL
GASTEIGER

@<TRIPOS>ATOM
      1 C         143.3904  140.1597  158.0756 C.3     1  UNL1        0.1161
      2 C         143.9282  140.1501  159.4758 C.3     1  UNL1        0.0510
      3 C         143.8068  141.3741  160.3344 C.2     1  UNL1       -0.0044
      4 C         143.1475  142.6077  159.7926 C.2     1  UNL1        0.0689
      5 N         143.1724  143.6557  160.8655 N.2     1  UNL1       -0.2526
      6 C         143.8470  143.0698  162.0703 C.2     1  UNL1        0.0627
      7 C         144.1550  143.6381  163.4238 C.3     1  UNL1        0.0717
      8 C         144.8551  142.7963  164.4491 C.2     1  UNL1       -0.0198
      9 C         145.2472  141.3861  164.1208 C.2     1  UNL1       -0.0042
     10 C         144.9392  140.8178  162.7673 C.2     1  UNL1        0.0006
     11 C         144.2391  141.6596  161.7420 C.2     1  UNL1        0.0111
     12 C         142.6096  142.6173  158.3924 C.3     1  UNL1        0.0949
     13 N         142.7311  141.3933  157.5339 N.3     1  UNL1       -0.2887
     14 H         143.2560  141.6672  156.7033 H       1  UNL1        0.1239
     15 C         143.3058  136.6596  156.4000 C.ar    1  UNL1        0.0769
     16 C         144.0918  137.4445  155.3920 C.ar    1  UNL1        0.1171
     17 N         144.2191  138.8512  155.8970 N.ar    1  UNL1       -0.2282
     18 C         143.5119  138.9356  157.2171 C.ar    1  UNL1        0.1318
     19 N         142.9474  137.5812  157.5280 N.ar    1  UNL1       -0.3397
     20 H         142.4322  137.3395  158.3313 H       1  UNL1        0.1671
     21 F         141.8510  130.8529  155.9921 F       1  UNL1       -0.2042
     22 C         142.2147  132.3046  156.0941 C.ar    1  UNL1        0.1401
     23 C         143.3296  132.7366  156.9998 C.ar    1  UNL1        0.0297
     24 C         143.6933  134.1882  157.1018 C.ar    1  UNL1        0.0038
     25 C         142.9421  135.2079  156.2980 C.ar    1  UNL1        0.0173
     26 C         141.8272  134.7759  155.3923 C.ar    1  UNL1        0.0038
     27 C         141.4635  133.3243  155.2904 C.ar    1  UNL1        0.0297
     28 C         141.9503  143.8509  157.8507 C.3     1  UNL1        0.0252
     29 C         142.3809  144.4122  156.5280 C.3     1  UNL1        0.0339
     30 C         141.7215  145.6459  155.9863 C.3     1  UNL1        0.1422
     31 O         140.6316  146.3182  156.7673 O.3     1  UNL1       -0.3538
     32 C         140.2009  145.7569  158.0900 C.3     1  UNL1        0.1422
     33 C         140.8603  144.5233  158.6317 C.3     1  UNL1        0.0339
@<TRIPOS>BOND
     1    21    22    1
     2    22    23   ar
     3    23    24   ar
     4    24    25   ar
     5    25    15    1
     6    15    16   ar
     7    16    17   ar
     8    17    18   ar
     9     1    18    1
    10     1     2    1
    11     2     3    1
    12     3     4    2
    13     4     5    1
    14     5     6    2
    15     6     7    1
    16     7     8    1
    17     8     9    2
    18     9    10    1
    19    10    11    2
    20     4    12    1
    21    12    28    1
    22    28    29    1
    23    29    30    1
    24    30    31    1
    25    31    32    1
    26    32    33    1
    27    12    13    1
    28    18    19   ar
    29    25    26   ar
    30    26    27   ar
    31    27    22   ar
    32    19    15   ar
    33    13     1    1
    34    11     3    1
    35    33    28    1
    36    11     6    1
    37    13    14    1
    38    19    20    1
@<TRIPOS>MOLECULE
*****
 33 38 0 0 0
SMALL
GASTEIGER

@<TRIPOS>ATOM
      1 C         142.0949  140.0135  160.5308 C.3     1  UNL1        0.1161
      2 C         142.5480  139.3608  161.8031 C.3     1  UNL1        0.0510
      3 C         142.2353  139.9969  163.1250 C.2     1  UNL1       -0.0044
      4 C         141.4695  141.2857  163.1747 C.2     1  UNL1        0.0689
      5 N         141.3100  141.6749  164.6145 N.2     1  UNL1       -0.2526
      6 C         141.9772  140.6266  165.4547 C.2     1  UNL1        0.0627
      7 C         142.1379  140.4824  166.9391 C.3     1  UNL1        0.0717
      8 C         142.8704  139.3011  167.5028 C.2     1  UNL1       -0.0198
      9 C         143.4424  138.2641  166.5823 C.2     1  UNL1       -0.0042
     10 C         143.2817  138.4083  165.0979 C.2     1  UNL1        0.0006
     11 C         142.5491  139.5895  164.5341 C.2     1  UNL1        0.0111
     12 C         141.0164  141.9384  161.9024 C.3     1  UNL1        0.0949
     13 N         141.3291  141.3023  160.5804 N.3     1  UNL1       -0.2887
     14 H         141.8659  141.9846  160.0450 H       1  UNL1        0.1239
     15 C         142.7955  137.7194  157.4793 C.ar    1  UNL1        0.0769
     16 C         142.9822  139.0773  156.8700 C.ar    1  UNL1        0.1171
     17 N         142.7425  140.1019  157.9389 N.ar    1  UNL1       -0.2282
     18 C         142.4077  139.3773  159.2088 C.ar    1  UNL1        0.1318
     19 N         142.4404  137.9048  158.9248 N.ar    1  UNL1       -0.3397
     20 H         142.2604  137.1863  159.5733 H       1  UNL1        0.1671
     21 F         143.3684  132.4679  154.6342 F       1  UNL1       -0.2042
     22 C         143.2252  133.7808  155.3456 C.ar    1  UNL1        0.1401
     23 C         143.3648  133.8446  156.8376 C.ar    1  UNL1        0.0297
     24 C         143.2216  135.1574  157.5489 C.ar    1  UNL1        0.0038
     25 C         142.9387  136.4065  156.7680 C.ar    1  UNL1        0.0173
     26 C         142.7991  136.3427  155.2759 C.ar    1  UNL1        0.0038
     27 C         142.9423  135.0299  154.5647 C.ar    1  UNL1        0.0297
     28 C         140.2506  143.2272  161.9520 C.3     1  UNL1        0.0252
     29 C         140.8122  144.4587  161.3058 C.3     1  UNL1        0.0339
     30 C         140.0463  145.7476  161.3555 C.3     1  UNL1        0.1422
     31 O         138.7188  145.8048  162.0514 O.3     1  UNL1       -0.3538
     32 C         138.1571  144.5732  162.6977 C.3     1  UNL1        0.1422
     33 C         138.9229  143.2845  162.6480 C.3     1  UNL1        0.0339
@<TRIPOS>BOND
     1    21    22    1
     2    22    23   ar
     3    23    24   ar
     4    24    25   ar
     5    25    15    1
     6    15    16   ar
     7    16    17   ar
     8    17    18   ar
     9     1    18    1
    10     1     2    1
    11     2     3    1
    12     3     4    2
    13     4     5    1
    14     5     6    2
    15     6     7    1
    16     7     8    1
    17     8     9    2
    18     9    10    1
    19    10    11    2
    20     4    12    1
    21    12    28    1
    22    28    29    1
    23    29    30    1
    24    30    31    1
    25    31    32    1
    26    32    33    1
    27    12    13    1
    28    18    19   ar
    29    25    26   ar
    30    26    27   ar
    31    27    22   ar
    32    19    15   ar
    33    13     1    1
    34    11     3    1
    35    33    28    1
    36    11     6    1
    37    13    14    1
    38    19    20    1
@<TRIPOS>MOLECULE
*****
 33 38 0 0 0
SMALL
GASTEIGER

@<TRIPOS>ATOM
      1 C         143.1291  139.2942  158.0462 C.3     1  UNL1        0.1161
      2 C         142.3415  140.4719  157.5536 C.3     1  UNL1        0.0510
      3 C         142.1826  141.6842  158.4225 C.2     1  UNL1       -0.0044
      4 C         142.8112  141.7188  159.7840 C.2     1  UNL1        0.0689
      5 N         142.4857  143.0419  160.4113 N.2     1  UNL1       -0.2526
      6 C         141.6559  143.8250  159.4376 C.2     1  UNL1        0.0627
      7 C         141.0467  145.1937  159.5114 C.3     1  UNL1        0.0717
      8 C         140.2501  145.7233  158.3560 C.2     1  UNL1       -0.0198
      9 C         140.0628  144.8842  157.1269 C.2     1  UNL1       -0.0042
     10 C         140.6720  143.5155  157.0531 C.2     1  UNL1        0.0006
     11 C         141.4685  142.9859  158.2084 C.2     1  UNL1        0.0111
     12 C         143.5989  140.5411  160.2766 C.3     1  UNL1        0.0949
     13 N         143.7578  139.3287  159.4077 N.3     1  UNL1       -0.2887
     14 H         143.3744  138.5404  159.9291 H       1  UNL1        0.1239
     15 C         143.1212  135.8162  156.3231 C.ar    1  UNL1        0.0769
     16 C         143.9440  136.6163  155.3573 C.ar    1  UNL1        0.1171
     17 N         144.0472  138.0165  155.8852 N.ar    1  UNL1       -0.2282
     18 C         143.2881  138.0818  157.1772 C.ar    1  UNL1        0.1318
     19 N         142.7157  136.7220  157.4479 N.ar    1  UNL1       -0.3397
     20 H         142.1699  136.4685  158.2270 H       1  UNL1        0.1671
     21 F         141.7006  130.0119  155.7820 F       1  UNL1       -0.2042
     22 C         142.0557  131.4631  155.9173 C.ar    1  UNL1        0.1401
     23 C         141.3178  132.4937  155.1152 C.ar    1  UNL1        0.0297
     24 C         141.6730  133.9447  155.2505 C.ar    1  UNL1        0.0038
     25 C         142.7660  134.3651  156.1878 C.ar    1  UNL1        0.0173
     26 C         143.5039  133.3345  156.9899 C.ar    1  UNL1        0.0038
     27 C         143.1487  131.8835  156.8546 C.ar    1  UNL1        0.0297
     28 C         144.2275  140.5756  161.6380 C.3     1  UNL1        0.0252
     29 C         144.0307  139.4287  162.5843 C.3     1  UNL1        0.0339
     30 C         144.6594  139.4633  163.9458 C.3     1  UNL1        0.1422
     31 O         145.4849  140.6449  164.3609 O.3     1  UNL1       -0.3538
     32 C         145.6818  141.7919  163.4145 C.3     1  UNL1        0.1422
     33 C         145.0531  141.7573  162.0531 C.3     1  UNL1        0.0339
@<TRIPOS>BOND
     1    21    22    1
     2    22    23   ar
     3    23    24   ar
     4    24    25   ar
     5    25    15    1
     6    15    16   ar
     7    16    17   ar
     8    17    18   ar
     9     1    18    1
    10     1     2    1
    11     2     3    1
    12     3     4    2
    13     4     5    1
    14     5     6    2
    15     6     7    1
    16     7     8    1
    17     8     9    2
    18     9    10    1
    19    10    11    2
    20     4    12    1
    21    12    28    1
    22    28    29    1
    23    29    30    1
    24    30    31    1
    25    31    32    1
    26    32    33    1
    27    12    13    1
    28    18    19   ar
    29    25    26   ar
    30    26    27   ar
    31    27    22   ar
    32    19    15   ar
    33    13     1    1
    34    11     3    1
    35    33    28    1
    36    11     6    1
    37    13    14    1
    38    19    20    1
@<TRIPOS>MOLECULE
*****
 33 38 0 0 0
SMALL
GASTEIGER

@<TRIPOS>ATOM
      1 C         141.8243  139.6419  159.5403 C.3     1  UNL1        0.1161
      2 C         142.9234  140.5667  159.1080 C.3     1  UNL1        0.0510
      3 C         143.7293  140.2526  157.8825 C.2     1  UNL1       -0.0044
      4 C         143.4360  139.0138  157.0892 C.2     1  UNL1        0.0689
      5 N         144.3914  138.9664  155.9338 N.2     1  UNL1       -0.2526
      6 C         145.2751  140.1758  156.0130 C.2     1  UNL1        0.0627
      7 C         146.3996  140.6560  155.1441 C.3     1  UNL1        0.0717
      8 C         147.1147  141.9311  155.4796 C.2     1  UNL1       -0.0198
      9 C         146.7055  142.7260  156.6840 C.2     1  UNL1       -0.0042
     10 C         145.5811  142.2459  157.5529 C.2     1  UNL1        0.0006
     11 C         144.8659  140.9708  157.2174 C.2     1  UNL1        0.0111
     12 C         142.3369  138.0890  157.5214 C.3     1  UNL1        0.0949
     13 N         141.5311  138.4031  158.7470 N.3     1  UNL1       -0.2887
     14 H         141.6420  137.6132  159.3827 H       1  UNL1        0.1239
     15 C         139.9697  141.1621  162.5923 C.ar    1  UNL1        0.0769
     16 C         139.5871  139.7166  162.7112 C.ar    1  UNL1        0.1171
     17 N         140.2352  138.9712  161.5824 N.ar    1  UNL1       -0.2282
     18 C         141.0184  139.9560  160.7659 C.ar    1  UNL1        0.1318
     19 N         140.8543  141.3100  161.3900 N.ar    1  UNL1       -0.3397
     20 H         141.2566  142.1486  161.0672 H       1  UNL1        0.1671
     21 F         138.2617  145.5772  166.2787 F       1  UNL1       -0.2042
     22 C         138.6887  144.4734  165.3571 C.ar    1  UNL1        0.1401
     23 C         139.9494  143.7097  165.6352 C.ar    1  UNL1        0.0297
     24 C         140.3764  142.6060  164.7136 C.ar    1  UNL1        0.0038
     25 C         139.5427  142.2659  163.5139 C.ar    1  UNL1        0.0173
     26 C         138.2820  143.0296  163.2358 C.ar    1  UNL1        0.0038
     27 C         137.8550  144.1334  164.1574 C.ar    1  UNL1        0.0297
     28 C         142.0437  136.8502  156.7281 C.3     1  UNL1        0.0252
     29 C         140.9307  136.8495  155.7226 C.3     1  UNL1        0.0339
     30 C         140.6375  135.6106  154.9293 C.3     1  UNL1        0.1422
     31 O         141.4573  134.3725  155.1416 O.3     1  UNL1       -0.3538
     32 C         142.5703  134.3732  156.1472 C.3     1  UNL1        0.1422
     33 C         142.8635  135.6120  156.9404 C.3     1  UNL1        0.0339
@<TRIPOS>BOND
     1    21    22    1
     2    22    23   ar
     3    23    24   ar
     4    24    25   ar
     5    25    15    1
     6    15    16   ar
     7    16    17   ar
     8    17    18   ar
     9     1    18    1
    10     1     2    1
    11     2     3    1
    12     3     4    2
    13     4     5    1
    14     5     6    2
    15     6     7    1
    16     7     8    1
    17     8     9    2
    18     9    10    1
    19    10    11    2
    20     4    12    1
    21    12    28    1
    22    28    29    1
    23    29    30    1
    24    30    31    1
    25    31    32    1
    26    32    33    1
    27    12    13    1
    28    18    19   ar
    29    25    26   ar
    30    26    27   ar
    31    27    22   ar
    32    19    15   ar
    33    13     1    1
    34    11     3    1
    35    33    28    1
    36    11     6    1
    37    13    14    1
    38    19    20    1
@<TRIPOS>MOLECULE
*****
 33 38 0 0 0
SMALL
GASTEIGER

@<TRIPOS>ATOM
      1 C         142.8038  139.5800  159.7522 C.3     1  UNL1        0.1161
      2 C         143.8082  140.5063  159.1332 C.3     1  UNL1        0.0510
      3 C         144.2429  140.3001  157.7124 C.2     1  UNL1       -0.0044
      4 C         143.6732  139.1675  156.9107 C.2     1  UNL1        0.0689
      5 N         144.2874  139.2129  155.5430 N.2     1  UNL1       -0.2526
      6 C         145.2366  140.3735  155.4994 C.2     1  UNL1        0.0627
      7 C         146.1224  140.9054  154.4120 C.3     1  UNL1        0.0717
      8 C         146.9807  142.1091  154.6654 C.2     1  UNL1       -0.0198
      9 C         146.9532  142.7810  156.0063 C.2     1  UNL1       -0.0042
     10 C         146.0674  142.2492  157.0936 C.2     1  UNL1        0.0006
     11 C         145.2091  141.0455  156.8402 C.2     1  UNL1        0.0111
     12 C         142.6688  138.2411  157.5298 C.3     1  UNL1        0.0949
     13 N         142.2341  138.4474  158.9505 N.3     1  UNL1       -0.2887
     14 H         142.4569  137.5888  159.4542 H       1  UNL1        0.1239
     15 C         141.1317  139.6257  163.2547 C.ar    1  UNL1        0.0769
     16 C         142.2685  140.5816  163.4638 C.ar    1  UNL1        0.1171
     17 N         143.0333  140.6808  162.1772 N.ar    1  UNL1       -0.2282
     18 C         142.3691  139.7862  161.1730 C.ar    1  UNL1        0.1318
     19 N         141.1938  139.1341  161.8388 N.ar    1  UNL1       -0.3397
     20 H         140.5723  138.4956  161.4202 H       1  UNL1        0.1671
     21 F         137.0518  138.0457  167.3606 F       1  UNL1       -0.2042
     22 C         138.0718  138.4407  166.3341 C.ar    1  UNL1        0.1401
     23 C         138.5044  139.8723  166.2189 C.ar    1  UNL1        0.0297
     24 C         139.5244  140.2673  165.1925 C.ar    1  UNL1        0.0038
     25 C         140.1117  139.2306  164.2812 C.ar    1  UNL1        0.0173
     26 C         139.6791  137.7990  164.3964 C.ar    1  UNL1        0.0038
     27 C         138.6591  137.4041  165.4228 C.ar    1  UNL1        0.0297
     28 C         142.0992  137.1085  156.7281 C.3     1  UNL1        0.0252
     29 C         140.8715  137.3235  155.8936 C.3     1  UNL1        0.0339
     30 C         140.3019  136.1908  155.0918 C.3     1  UNL1        0.1422
     31 O         140.9599  134.8433  155.1247 O.3     1  UNL1       -0.3538
     32 C         142.1877  134.6283  155.9593 C.3     1  UNL1        0.1422
     33 C         142.7573  135.7609  156.7609 C.3     1  UNL1        0.0339
@<TRIPOS>BOND
     1    21    22    1
     2    22    23   ar
     3    23    24   ar
     4    24    25   ar
     5    25    15    1
     6    15    16   ar
     7    16    17   ar
     8    17    18   ar
     9     1    18    1
    10     1     2    1
    11     2     3    1
    12     3     4    2
    13     4     5    1
    14     5     6    2
    15     6     7    1
    16     7     8    1
    17     8     9    2
    18     9    10    1
    19    10    11    2
    20     4    12    1
    21    12    28    1
    22    28    29    1
    23    29    30    1
    24    30    31    1
    25    31    32    1
    26    32    33    1
    27    12    13    1
    28    18    19   ar
    29    25    26   ar
    30    26    27   ar
    31    27    22   ar
    32    19    15   ar
    33    13     1    1
    34    11     3    1
    35    33    28    1
    36    11     6    1
    37    13    14    1
    38    19    20    1
