@<TRIPOS>MOLECULE
*****
 32 35 0 0 0
SMALL
GASTEIGER

@<TRIPOS>ATOM
      1 C         142.8961  141.6929  162.3380 C.ar    1  UNL1        0.0082
      2 C         143.1506  142.6535  163.4615 C.ar    1  UNL1       -0.0018
      3 C         142.8767  142.2410  164.8774 C.ar    1  UNL1        0.0033
      4 C         142.3485  140.8679  165.1697 C.ar    1  UNL1        0.0658
      5 C         142.0940  139.9073  164.0462 C.ar    1  UNL1        0.0685
      6 C         142.3678  140.3198  162.6303 C.ar    1  UNL1        0.0165
      7 C         142.1746  140.7445  166.6545 C.2     1  UNL1        0.2502
      8 O         141.6687  139.5364  167.3856 O.2     1  UNL1       -0.2699
      9 N         142.5954  142.0414  167.2799 N.am    1  UNL1       -0.2736
     10 C         143.0294  142.9662  166.1815 C.3     1  UNL1        0.1205
     11 C         144.3247  142.6277  158.8521 C.ar    1  UNL1        0.1652
     12 N         142.8577  142.8526  158.6340 N.ar    1  UNL1       -0.2283
     13 C         142.1441  142.5298  159.9132 C.ar    1  UNL1        0.0673
     14 C         140.6644  142.6162  160.1433 C.3     1  UNL1        0.0527
     15 C         143.1699  142.1054  160.9220 C.ar    1  UNL1        0.0457
     16 S         144.5176  142.1659  160.2662 S.2     1  UNL1       -0.0517
     17 C         146.9067  141.8960  155.9284 C.3     1  UNL1        0.0950
     18 C         145.8229  141.6945  156.9457 C.2     1  UNL1        0.2280
     19 O         145.1536  140.3582  157.0739 O.2     1  UNL1       -0.2747
     20 N         145.4085  142.8292  157.8348 N.am    1  UNL1       -0.2641
     21 H         145.8477  143.7063  157.7507 H       1  UNL1        0.1567
     22 N         141.5657  138.5341  164.3385 N.pl3   1  UNL1       -0.2186
     23 H         142.0752  137.9241  164.9194 H       1  UNL1        0.1734
     24 S         140.2612  138.0905  163.7457 S.O2    1  UNL1        0.0558
     25 C         138.9567  137.6469  163.1529 C.3     1  UNL1        0.1996
     26 O         140.9861  137.0812  162.9057 O.2     1  UNL1       -0.1544
     27 O         139.5363  139.0999  164.5857 O.2     1  UNL1       -0.1544
     28 C         142.5842  142.3578  168.7461 C.3     1  UNL1        0.0759
     29 C         143.8402  142.2156  169.5536 C.3     1  UNL1        0.0215
     30 C         141.3170  142.8165  169.4047 C.3     1  UNL1        0.0182
     31 C         139.9797  142.5038  170.0079 C.3     1  UNL1        0.0017
     32 C         140.4595  143.9235  169.9423 C.3     1  UNL1        0.0017
@<TRIPOS>BOND
     1    17    18    1
     2    18    19    2
     3    18    20   am
     4    20    11    1
     5    11    12   ar
     6    12    13   ar
     7    13    14    1
     8    13    15   ar
     9    15     1    1
    10     1     2   ar
    11     2     3   ar
    12     3     4   ar
    13     4     5   ar
    14     5    22    1
    15    22    24    1
    16    24    25    1
    17    24    26    2
    18    24    27    2
    19     5     6   ar
    20     4     7    1
    21     7     8    2
    22     7     9   am
    23     9    28    1
    24    28    29    1
    25    28    30    1
    26    30    31    1
    27    31    32    1
    28     9    10    1
    29    15    16   ar
    30    16    11   ar
    31     6     1   ar
    32    32    30    1
    33    10     3    1
    34    20    21    1
    35    22    23    1
@<TRIPOS>MOLECULE
*****
 32 35 0 0 0
SMALL
GASTEIGER

@<TRIPOS>ATOM
      1 C         140.4691  142.7319  161.8129 C.ar    1  UNL1        0.0082
      2 C         139.3531  142.5480  162.7981 C.ar    1  UNL1       -0.0018
      3 C         139.5117  141.5890  163.9406 C.ar    1  UNL1        0.0033
      4 C         140.7863  140.8139  164.0978 C.ar    1  UNL1        0.0658
      5 C         141.9023  140.9978  163.1126 C.ar    1  UNL1        0.0685
      6 C         141.7437  141.9568  161.9701 C.ar    1  UNL1        0.0165
      7 C         140.6544  139.9468  165.3146 C.2     1  UNL1        0.2502
      8 O         141.6958  139.0058  165.8437 O.2     1  UNL1       -0.2699
      9 N         139.2983  140.1860  165.9095 N.am    1  UNL1       -0.2736
     10 C         138.5921  141.2009  165.0603 C.3     1  UNL1        0.1205
     11 C         140.1031  144.5954  158.4278 C.ar    1  UNL1        0.1652
     12 N         140.0301  145.7380  159.3971 N.ar    1  UNL1       -0.2283
     13 C         140.1584  145.1789  160.7830 C.ar    1  UNL1        0.0673
     14 C         140.1380  145.9692  162.0578 C.3     1  UNL1        0.0527
     15 C         140.3106  143.6909  160.6704 C.ar    1  UNL1        0.0457
     16 S         140.2764  143.3303  159.2149 S.2     1  UNL1       -0.0517
     17 C         141.0416  145.4560  154.6690 C.3     1  UNL1        0.0950
     18 C         141.1269  145.3517  156.1630 C.2     1  UNL1        0.2280
     19 O         142.3216  145.8994  156.8860 O.2     1  UNL1       -0.2747
     20 N         140.0177  144.6997  156.9339 N.am    1  UNL1       -0.2641
     21 H         139.2335  144.3403  156.4594 H       1  UNL1        0.1567
     22 N         143.1769  140.2228  163.2698 N.pl3   1  UNL1       -0.2186
     23 H         143.1574  139.2385  163.2713 H       1  UNL1        0.1734
     24 S         144.4810  140.9474  163.4246 S.O2    1  UNL1        0.0558
     25 C         145.7853  141.6720  163.5795 C.3     1  UNL1        0.1996
     26 O         144.8853  140.5142  162.0467 O.2     1  UNL1       -0.1544
     27 O         144.0767  141.3805  164.8026 O.2     1  UNL1       -0.1544
     28 C         138.7456  139.5261  167.1379 C.3     1  UNL1        0.0759
     29 C         137.6845  138.4736  167.0109 C.3     1  UNL1        0.0215
     30 C         139.2538  139.9188  168.4934 C.3     1  UNL1        0.0182
     31 C         138.9884  140.3236  169.9132 C.3     1  UNL1        0.0017
     32 C         140.3996  140.1942  169.4215 C.3     1  UNL1        0.0017
@<TRIPOS>BOND
     1    17    18    1
     2    18    19    2
     3    18    20   am
     4    20    11    1
     5    11    12   ar
     6    12    13   ar
     7    13    14    1
     8    13    15   ar
     9    15     1    1
    10     1     2   ar
    11     2     3   ar
    12     3     4   ar
    13     4     5   ar
    14     5    22    1
    15    22    24    1
    16    24    25    1
    17    24    26    2
    18    24    27    2
    19     5     6   ar
    20     4     7    1
    21     7     8    2
    22     7     9   am
    23     9    28    1
    24    28    29    1
    25    28    30    1
    26    30    31    1
    27    31    32    1
    28     9    10    1
    29    15    16   ar
    30    16    11   ar
    31     6     1   ar
    32    32    30    1
    33    10     3    1
    34    20    21    1
    35    22    23    1
@<TRIPOS>MOLECULE
*****
 32 35 0 0 0
SMALL
GASTEIGER

@<TRIPOS>ATOM
      1 C         140.9650  143.4582  161.7318 C.ar    1  UNL1        0.0082
      2 C         141.8655  143.6849  162.9098 C.ar    1  UNL1       -0.0018
      3 C         141.5373  143.0638  164.2351 C.ar    1  UNL1        0.0033
      4 C         140.3086  142.2161  164.3825 C.ar    1  UNL1        0.0658
      5 C         139.4081  141.9894  163.2045 C.ar    1  UNL1        0.0685
      6 C         139.7363  142.6105  161.8792 C.ar    1  UNL1        0.0165
      7 C         140.2432  141.7375  165.8026 C.2     1  UNL1        0.2502
      8 O         139.1767  140.8609  166.3893 O.2     1  UNL1       -0.2699
      9 N         141.4314  142.2895  166.5330 N.am    1  UNL1       -0.2736
     10 C         142.2312  143.1092  165.5642 C.3     1  UNL1        0.1205
     11 C         141.1861  145.4655  158.4171 C.ar    1  UNL1        0.1652
     12 N         142.4102  144.6044  158.3167 N.ar    1  UNL1       -0.2283
     13 C         142.4764  143.7477  159.5462 C.ar    1  UNL1        0.0673
     14 C         143.5392  142.7369  159.8603 C.3     1  UNL1        0.0527
     15 C         141.2931  144.0793  160.4064 C.ar    1  UNL1        0.0457
     16 S         140.4957  145.1409  159.7086 S.2     1  UNL1       -0.0517
     17 C         139.3263  147.0781  155.3041 C.3     1  UNL1        0.0950
     18 C         139.7803  146.0695  156.3173 C.2     1  UNL1        0.2280
     19 O         139.2826  144.6564  156.2441 O.2     1  UNL1       -0.2747
     20 N         140.7320  146.4741  157.4038 N.am    1  UNL1       -0.2641
     21 H         141.0587  147.4016  157.4519 H       1  UNL1        0.1567
     22 N         138.1794  141.1417  163.3518 N.pl3   1  UNL1       -0.2186
     23 H         137.4703  141.4078  163.9808 H       1  UNL1        0.1734
     24 S         138.0312  139.8885  162.5410 S.O2    1  UNL1        0.0558
     25 C         137.8829  138.6353  161.7301 C.3     1  UNL1        0.1996
     26 O         138.8868  139.1495  163.5267 O.2     1  UNL1       -0.1544
     27 O         137.1755  140.6276  161.5553 O.2     1  UNL1       -0.1544
     28 C         141.7618  142.0618  167.9783 C.3     1  UNL1        0.0759
     29 C         142.9277  141.1959  168.3537 C.3     1  UNL1        0.0215
     30 C         140.9264  142.6999  169.0482 C.3     1  UNL1        0.0182
     31 C         140.5093  143.9186  169.8169 C.3     1  UNL1        0.0017
     32 C         139.8964  142.5865  170.1327 C.3     1  UNL1        0.0017
@<TRIPOS>BOND
     1    17    18    1
     2    18    19    2
     3    18    20   am
     4    20    11    1
     5    11    12   ar
     6    12    13   ar
     7    13    14    1
     8    13    15   ar
     9    15     1    1
    10     1     2   ar
    11     2     3   ar
    12     3     4   ar
    13     4     5   ar
    14     5    22    1
    15    22    24    1
    16    24    25    1
    17    24    26    2
    18    24    27    2
    19     5     6   ar
    20     4     7    1
    21     7     8    2
    22     7     9   am
    23     9    28    1
    24    28    29    1
    25    28    30    1
    26    30    31    1
    27    31    32    1
    28     9    10    1
    29    15    16   ar
    30    16    11   ar
    31     6     1   ar
    32    32    30    1
    33    10     3    1
    34    20    21    1
    35    22    23    1
@<TRIPOS>MOLECULE
*****
 32 35 0 0 0
SMALL
GASTEIGER

@<TRIPOS>ATOM
      1 C         142.2306  140.8568  162.2557 C.ar    1  UNL1        0.0082
      2 C         142.8753  140.5125  163.5656 C.ar    1  UNL1       -0.0018
      3 C         142.3879  141.1512  164.8322 C.ar    1  UNL1        0.0033
      4 C         141.2558  142.1343  164.7890 C.ar    1  UNL1        0.0658
      5 C         140.6111  142.4786  163.4791 C.ar    1  UNL1        0.0685
      6 C         141.0985  141.8399  162.2125 C.ar    1  UNL1        0.0165
      7 C         140.9924  142.5998  166.1904 C.2     1  UNL1        0.2502
      8 O         139.9437  143.5873  166.6089 O.2     1  UNL1       -0.2699
      9 N         141.9616  141.9044  167.0997 N.am    1  UNL1       -0.2736
     10 C         142.8241  141.0092  166.2603 C.3     1  UNL1        0.1205
     11 C         143.0411  138.6342  159.1786 C.ar    1  UNL1        0.1652
     12 N         143.8949  139.8360  158.9010 N.ar    1  UNL1       -0.2283
     13 C         143.6951  140.8148  160.0199 C.ar    1  UNL1        0.0673
     14 C         144.3564  142.1551  160.1474 C.3     1  UNL1        0.0527
     15 C         142.7180  140.2180  160.9890 C.ar    1  UNL1        0.0457
     16 S         142.3138  138.8703  160.4690 S.2     1  UNL1       -0.0517
     17 C         141.8716  136.1669  156.2985 C.3     1  UNL1        0.0950
     18 C         141.9791  137.3901  157.1601 C.2     1  UNL1        0.2280
     19 O         141.1319  138.5923  156.8649 O.2     1  UNL1       -0.2747
     20 N         142.9336  137.4110  158.3169 N.am    1  UNL1       -0.2641
     21 H         143.4896  136.6220  158.5107 H       1  UNL1        0.1567
     22 N         139.4790  143.4617  163.4359 N.pl3   1  UNL1       -0.2186
     23 H         138.6443  143.2731  163.9228 H       1  UNL1        0.1734
     24 S         139.6185  144.7322  162.6508 S.O2    1  UNL1        0.0558
     25 C         139.7579  146.0028  161.8657 C.3     1  UNL1        0.1996
     26 O         138.5405  144.2722  161.7148 O.2     1  UNL1       -0.1544
     27 O         140.6965  145.1922  163.5869 O.2     1  UNL1       -0.1544
     28 C         142.0525  142.0745  168.5873 C.3     1  UNL1        0.0759
     29 C         143.3854  142.3032  169.2360 C.3     1  UNL1        0.0215
     30 C         140.8104  142.0157  169.4261 C.3     1  UNL1        0.0182
     31 C         139.8550  142.6693  170.3801 C.3     1  UNL1        0.0017
     32 C         139.6144  141.2603  169.9252 C.3     1  UNL1        0.0017
@<TRIPOS>BOND
     1    17    18    1
     2    18    19    2
     3    18    20   am
     4    20    11    1
     5    11    12   ar
     6    12    13   ar
     7    13    14    1
     8    13    15   ar
     9    15     1    1
    10     1     2   ar
    11     2     3   ar
    12     3     4   ar
    13     4     5   ar
    14     5    22    1
    15    22    24    1
    16    24    25    1
    17    24    26    2
    18    24    27    2
    19     5     6   ar
    20     4     7    1
    21     7     8    2
    22     7     9   am
    23     9    28    1
    24    28    29    1
    25    28    30    1
    26    30    31    1
    27    31    32    1
    28     9    10    1
    29    15    16   ar
    30    16    11   ar
    31     6     1   ar
    32    32    30    1
    33    10     3    1
    34    20    21    1
    35    22    23    1
@<TRIPOS>MOLECULE
*****
 32 35 0 0 0
SMALL
GASTEIGER

@<TRIPOS>ATOM
      1 C         142.1494  139.5393  162.6532 C.ar    1  UNL1        0.0082
      2 C         143.0934  139.4168  163.8124 C.ar    1  UNL1       -0.0018
      3 C         142.6183  139.7224  165.2019 C.ar    1  UNL1        0.0033
      4 C         141.1993  140.1505  165.4322 C.ar    1  UNL1        0.0658
      5 C         140.2553  140.2729  164.2730 C.ar    1  UNL1        0.0685
      6 C         140.7303  139.9673  162.8835 C.ar    1  UNL1        0.0165
      7 C         141.0183  140.3833  166.9030 C.2     1  UNL1        0.2502
      8 O         139.7523  140.8231  167.5768 O.2     1  UNL1       -0.2699
      9 N         142.3255  140.0992  167.5816 N.am    1  UNL1       -0.2736
     10 C         143.3143  139.6907  166.5303 C.3     1  UNL1        0.1205
     11 C         142.9745  138.1175  159.1370 C.ar    1  UNL1        0.1652
     12 N         143.7363  139.4094  159.1133 N.ar    1  UNL1       -0.2283
     13 C         143.5200  140.0992  160.4276 C.ar    1  UNL1        0.0673
     14 C         144.0977  141.4224  160.8344 C.3     1  UNL1        0.0527
     15 C         142.6244  139.2337  161.2635 C.ar    1  UNL1        0.0457
     16 S         142.2873  138.0089  160.4659 S.2     1  UNL1       -0.0517
     17 C         141.7068  136.1324  155.9428 C.3     1  UNL1        0.0950
     18 C         141.7703  137.1390  157.0531 C.2     1  UNL1        0.2280
     19 O         140.6930  138.1738  157.1899 O.2     1  UNL1       -0.2747
     20 N         142.9110  137.1109  158.0267 N.am    1  UNL1       -0.2641
     21 H         143.6181  136.4317  157.9370 H       1  UNL1        0.1567
     22 N         138.8362  140.7010  164.5034 N.pl3   1  UNL1       -0.2186
     23 H         138.2693  140.2052  165.1374 H       1  UNL1        0.1734
     24 S         138.2810  141.8844  163.7677 S.O2    1  UNL1        0.0558
     25 C         137.7257  143.0679  163.0320 C.3     1  UNL1        0.1996
     26 O         137.3517  140.9799  163.0140 O.2     1  UNL1       -0.1544
     27 O         139.2103  142.7890  164.5214 O.2     1  UNL1       -0.1544
     28 C         142.5962  140.2049  169.0532 C.3     1  UNL1        0.0759
     29 C         142.4413  138.9999  169.9328 C.3     1  UNL1        0.0215
     30 C         143.0219  141.5157  169.6452 C.3     1  UNL1        0.0182
     31 C         144.1012  142.5070  169.9657 C.3     1  UNL1        0.0017
     32 C         142.6801  142.7950  170.3499 C.3     1  UNL1        0.0017
@<TRIPOS>BOND
     1    17    18    1
     2    18    19    2
     3    18    20   am
     4    20    11    1
     5    11    12   ar
     6    12    13   ar
     7    13    14    1
     8    13    15   ar
     9    15     1    1
    10     1     2   ar
    11     2     3   ar
    12     3     4   ar
    13     4     5   ar
    14     5    22    1
    15    22    24    1
    16    24    25    1
    17    24    26    2
    18    24    27    2
    19     5     6   ar
    20     4     7    1
    21     7     8    2
    22     7     9   am
    23     9    28    1
    24    28    29    1
    25    28    30    1
    26    30    31    1
    27    31    32    1
    28     9    10    1
    29    15    16   ar
    30    16    11   ar
    31     6     1   ar
    32    32    30    1
    33    10     3    1
    34    20    21    1
    35    22    23    1
@<TRIPOS>MOLECULE
*****
 32 35 0 0 0
SMALL
GASTEIGER

@<TRIPOS>ATOM
      1 C         140.9418  143.0014  162.1736 C.ar    1  UNL1        0.0082
      2 C         141.7618  143.1374  163.4222 C.ar    1  UNL1       -0.0018
      3 C         141.3715  142.3873  164.6611 C.ar    1  UNL1        0.0033
      4 C         140.1612  141.5012  164.6514 C.ar    1  UNL1        0.0658
      5 C         139.3412  141.3652  163.4028 C.ar    1  UNL1        0.0685
      6 C         139.7315  142.1153  162.1639 C.ar    1  UNL1        0.0165
      7 C         140.0231  140.8902  166.0143 C.2     1  UNL1        0.2502
      8 O         138.9488  139.9379  166.4489 O.2     1  UNL1       -0.2699
      9 N         141.1481  141.3986  166.8664 N.am    1  UNL1       -0.2736
     10 C         141.9814  142.3238  166.0300 C.3     1  UNL1        0.1205
     11 C         142.3378  144.3176  158.7995 C.ar    1  UNL1        0.1652
     12 N         141.5273  145.4941  159.2565 N.ar    1  UNL1       -0.2283
     13 C         140.9057  145.1443  160.5760 C.ar    1  UNL1        0.0673
     14 C         140.0143  146.0314  161.3935 C.3     1  UNL1        0.0527
     15 C         141.3320  143.7515  160.9345 C.ar    1  UNL1        0.0457
     16 S         142.2171  143.2406  159.8366 S.2     1  UNL1       -0.0517
     17 C         143.2444  143.7645  154.9755 C.3     1  UNL1        0.0950
     18 C         142.4522  143.8492  156.2465 C.2     1  UNL1        0.2280
     19 O         140.9824  143.5503  156.2355 O.2     1  UNL1       -0.2747
     20 N         143.1300  144.2329  157.5285 N.am    1  UNL1       -0.2641
     21 H         144.0947  144.4291  157.5357 H       1  UNL1        0.1567
     22 N         138.1309  140.4791  163.3931 N.pl3   1  UNL1       -0.2186
     23 H         137.3600  140.6925  163.9670 H       1  UNL1        0.1734
     24 S         138.0952  139.2680  162.5089 S.O2    1  UNL1        0.0558
     25 C         138.0594  138.0568  161.6247 C.3     1  UNL1        0.1996
     26 O         137.3553  140.0514  161.4656 O.2     1  UNL1       -0.1544
     27 O         138.8351  138.4845  163.5523 O.2     1  UNL1       -0.1544
     28 C         141.3962  141.0440  168.3026 C.3     1  UNL1        0.0759
     29 C         142.7001  140.4228  168.7073 C.3     1  UNL1        0.0215
     30 C         140.3403  141.3106  169.3341 C.3     1  UNL1        0.0182
     31 C         139.7221  142.2186  170.3556 C.3     1  UNL1        0.0017
     32 C         139.1298  140.8646  170.0993 C.3     1  UNL1        0.0017
@<TRIPOS>BOND
     1    17    18    1
     2    18    19    2
     3    18    20   am
     4    20    11    1
     5    11    12   ar
     6    12    13   ar
     7    13    14    1
     8    13    15   ar
     9    15     1    1
    10     1     2   ar
    11     2     3   ar
    12     3     4   ar
    13     4     5   ar
    14     5    22    1
    15    22    24    1
    16    24    25    1
    17    24    26    2
    18    24    27    2
    19     5     6   ar
    20     4     7    1
    21     7     8    2
    22     7     9   am
    23     9    28    1
    24    28    29    1
    25    28    30    1
    26    30    31    1
    27    31    32    1
    28     9    10    1
    29    15    16   ar
    30    16    11   ar
    31     6     1   ar
    32    32    30    1
    33    10     3    1
    34    20    21    1
    35    22    23    1
@<TRIPOS>MOLECULE
*****
 32 35 0 0 0
SMALL
GASTEIGER

@<TRIPOS>ATOM
      1 C         142.5641  141.3776  162.5262 C.ar    1  UNL1        0.0082
      2 C         143.2407  142.1000  163.6532 C.ar    1  UNL1       -0.0018
      3 C         142.7477  141.9258  165.0591 C.ar    1  UNL1        0.0033
      4 C         141.5781  141.0290  165.3379 C.ar    1  UNL1        0.0658
      5 C         140.9014  140.3066  164.2110 C.ar    1  UNL1        0.0685
      6 C         141.3944  140.4809  162.8051 C.ar    1  UNL1        0.0165
      7 C         141.3175  141.0530  166.8149 C.2     1  UNL1        0.2502
      8 O         140.2378  140.2979  167.5321 O.2     1  UNL1       -0.2699
      9 N         142.3260  141.9645  167.4489 N.am    1  UNL1       -0.2736
     10 C         143.2100  142.5039  166.3637 C.3     1  UNL1        0.1205
     11 C         143.5574  142.5240  158.9534 C.ar    1  UNL1        0.1652
     12 N         144.0741  141.1158  158.9601 N.ar    1  UNL1       -0.2283
     13 C         143.7649  140.5150  160.2992 C.ar    1  UNL1        0.0673
     14 C         144.1039  139.1219  160.7400 C.3     1  UNL1        0.0527
     15 C         143.0571  141.5518  161.1202 C.ar    1  UNL1        0.0457
     16 S         142.9289  142.7935  160.2885 S.2     1  UNL1       -0.0517
     17 C         142.8309  144.3235  155.4916 C.3     1  UNL1        0.0950
     18 C         142.7358  143.3549  156.6330 C.2     1  UNL1        0.2280
     19 O         141.7237  142.2484  156.5952 O.2     1  UNL1       -0.2747
     20 N         143.6526  143.4927  157.8121 N.am    1  UNL1       -0.2641
     21 H         144.3168  144.2189  157.8369 H       1  UNL1        0.1567
     22 N         139.7318  139.4099  164.4898 N.pl3   1  UNL1       -0.2186
     23 H         139.4493  139.2435  165.4182 H       1  UNL1        0.1734
     24 S         138.9924  138.7665  163.3543 S.O2    1  UNL1        0.0558
     25 C         138.2530  138.1232  162.2187 C.3     1  UNL1        0.1996
     26 O         139.8967  137.5730  163.4417 O.2     1  UNL1       -0.1544
     27 O         138.0881  139.9601  163.2669 O.2     1  UNL1       -0.1544
     28 C         142.4321  142.2810  168.9113 C.3     1  UNL1        0.0759
     29 C         143.7080  142.0012  169.6487 C.3     1  UNL1        0.0215
     30 C         141.2622  142.8772  169.6364 C.3     1  UNL1        0.0182
     31 C         140.2776  143.9945  169.8164 C.3     1  UNL1        0.0017
     32 C         140.2203  142.7928  170.7122 C.3     1  UNL1        0.0017
@<TRIPOS>BOND
     1    17    18    1
     2    18    19    2
     3    18    20   am
     4    20    11    1
     5    11    12   ar
     6    12    13   ar
     7    13    14    1
     8    13    15   ar
     9    15     1    1
    10     1     2   ar
    11     2     3   ar
    12     3     4   ar
    13     4     5   ar
    14     5    22    1
    15    22    24    1
    16    24    25    1
    17    24    26    2
    18    24    27    2
    19     5     6   ar
    20     4     7    1
    21     7     8    2
    22     7     9   am
    23     9    28    1
    24    28    29    1
    25    28    30    1
    26    30    31    1
    27    31    32    1
    28     9    10    1
    29    15    16   ar
    30    16    11   ar
    31     6     1   ar
    32    32    30    1
    33    10     3    1
    34    20    21    1
    35    22    23    1
@<TRIPOS>MOLECULE
*****
 32 35 0 0 0
SMALL
GASTEIGER

@<TRIPOS>ATOM
      1 C         140.0084  139.5222  160.8506 C.ar    1  UNL1        0.0082
      2 C         141.2641  138.7342  160.6223 C.ar    1  UNL1       -0.0018
      3 C         141.5928  138.2284  159.2489 C.ar    1  UNL1        0.0033
      4 C         140.6658  138.5107  158.1039 C.ar    1  UNL1        0.0658
      5 C         139.4101  139.2987  158.3323 C.ar    1  UNL1        0.0685
      6 C         139.0814  139.8045  159.7056 C.ar    1  UNL1        0.0165
      7 C         141.2494  137.8874  156.8706 C.2     1  UNL1        0.2502
      8 O         140.6504  137.9250  155.4959 O.2     1  UNL1       -0.2699
      9 N         142.5371  137.2200  157.2534 N.am    1  UNL1       -0.2736
     10 C         142.7493  137.4308  158.7232 C.3     1  UNL1        0.1205
     11 C         139.4209  141.4880  164.1455 C.ar    1  UNL1        0.1652
     12 N         138.9265  140.1248  164.5292 N.ar    1  UNL1       -0.2283
     13 C         139.0864  139.2225  163.3416 C.ar    1  UNL1        0.0673
     14 C         138.7177  137.7698  163.2822 C.3     1  UNL1        0.0527
     15 C         139.6796  140.0281  162.2240 C.ar    1  UNL1        0.0457
     16 S         139.8864  141.4282  162.7208 S.2     1  UNL1       -0.0517
     17 C         138.5196  145.0417  165.6650 C.3     1  UNL1        0.0950
     18 C         138.4950  143.8312  164.7795 C.2     1  UNL1        0.2280
     19 O         137.5198  143.7535  163.6424 O.2     1  UNL1       -0.2747
     20 N         139.4456  142.6985  165.0310 N.am    1  UNL1       -0.2641
     21 H         140.0857  142.7495  165.7773 H       1  UNL1        0.1567
     22 N         138.4831  139.5809  157.1873 N.pl3   1  UNL1       -0.2186
     23 H         138.2485  138.8633  156.5555 H       1  UNL1        0.1734
     24 S         137.9136  140.9565  157.0049 S.O2    1  UNL1        0.0558
     25 C         137.3440  142.3322  156.8225 C.3     1  UNL1        0.1996
     26 O         136.5479  140.4357  157.3417 O.2     1  UNL1       -0.1544
     27 O         139.2794  141.4773  156.6681 O.2     1  UNL1       -0.1544
     28 C         143.4518  136.4730  156.3286 C.3     1  UNL1        0.0759
     29 C         144.2366  137.2158  155.2884 C.3     1  UNL1        0.0215
     30 C         143.5818  134.9831  156.4442 C.3     1  UNL1        0.0182
     31 C         143.5520  133.7374  157.2792 C.3     1  UNL1        0.0017
     32 C         143.8369  133.6483  155.8093 C.3     1  UNL1        0.0017
@<TRIPOS>BOND
     1    17    18    1
     2    18    19    2
     3    18    20   am
     4    20    11    1
     5    11    12   ar
     6    12    13   ar
     7    13    14    1
     8    13    15   ar
     9    15     1    1
    10     1     2   ar
    11     2     3   ar
    12     3     4   ar
    13     4     5   ar
    14     5    22    1
    15    22    24    1
    16    24    25    1
    17    24    26    2
    18    24    27    2
    19     5     6   ar
    20     4     7    1
    21     7     8    2
    22     7     9   am
    23     9    28    1
    24    28    29    1
    25    28    30    1
    26    30    31    1
    27    31    32    1
    28     9    10    1
    29    15    16   ar
    30    16    11   ar
    31     6     1   ar
    32    32    30    1
    33    10     3    1
    34    20    21    1
    35    22    23    1
@<TRIPOS>MOLECULE
*****
 32 35 0 0 0
SMALL
GASTEIGER

@<TRIPOS>ATOM
      1 C         140.3554  142.0457  162.1635 C.ar    1  UNL1        0.0082
      2 C         139.7615  142.7456  163.3498 C.ar    1  UNL1       -0.0018
      3 C         140.1586  142.3376  164.7375 C.ar    1  UNL1        0.0033
      4 C         141.1497  141.2298  164.9389 C.ar    1  UNL1        0.0658
      5 C         141.7436  140.5300  163.7525 C.ar    1  UNL1        0.0685
      6 C         141.3465  140.9379  162.3648 C.ar    1  UNL1        0.0165
      7 C         141.3479  141.0478  166.4146 C.2     1  UNL1        0.2502
      8 O         142.2554  140.0463  167.0653 O.2     1  UNL1       -0.2699
      9 N         140.4794  142.0430  167.1252 N.am    1  UNL1       -0.2736
     10 C         139.7443  142.8402  166.0887 C.3     1  UNL1        0.1205
     11 C         138.6952  142.7193  158.7202 C.ar    1  UNL1        0.1652
     12 N         139.9991  143.4436  158.5600 N.ar    1  UNL1       -0.2283
     13 C         140.7796  143.2794  159.8303 C.ar    1  UNL1        0.0673
     14 C         142.1423  143.8421  160.1068 C.3     1  UNL1        0.0527
     15 C         139.9582  142.4537  160.7757 C.ar    1  UNL1        0.0457
     16 S         138.6700  142.1076  160.0896 S.2     1  UNL1       -0.0517
     17 C         136.1841  141.2019  156.0478 C.3     1  UNL1        0.0950
     18 C         137.2718  141.2976  157.0763 C.2     1  UNL1        0.2280
     19 O         138.0236  140.0671  157.4896 O.2     1  UNL1       -0.2747
     20 N         137.6076  142.6237  157.6917 N.am    1  UNL1       -0.2641
     21 H         137.1142  143.4313  157.4204 H       1  UNL1        0.1567
     22 N         142.7347  139.4222  163.9539 N.pl3   1  UNL1       -0.2186
     23 H         143.0138  139.1708  164.8639 H       1  UNL1        0.1734
     24 S         143.3006  138.6975  162.7688 S.O2    1  UNL1        0.0558
     25 C         143.8665  137.9727  161.5836 C.3     1  UNL1        0.1996
     26 O         144.4383  139.6734  162.7152 O.2     1  UNL1       -0.1544
     27 O         142.1628  137.7215  162.8224 O.2     1  UNL1       -0.1544
     28 C         140.3657  142.2115  168.6114 C.3     1  UNL1        0.0759
     29 C         140.7506  143.5130  169.2502 C.3     1  UNL1        0.0215
     30 C         139.8673  141.0786  169.4587 C.3     1  UNL1        0.0182
     31 C         140.1402  139.9389  170.3949 C.3     1  UNL1        0.0017
     32 C         138.7312  140.2561  169.9902 C.3     1  UNL1        0.0017
@<TRIPOS>BOND
     1    17    18    1
     2    18    19    2
     3    18    20   am
     4    20    11    1
     5    11    12   ar
     6    12    13   ar
     7    13    14    1
     8    13    15   ar
     9    15     1    1
    10     1     2   ar
    11     2     3   ar
    12     3     4   ar
    13     4     5   ar
    14     5    22    1
    15    22    24    1
    16    24    25    1
    17    24    26    2
    18    24    27    2
    19     5     6   ar
    20     4     7    1
    21     7     8    2
    22     7     9   am
    23     9    28    1
    24    28    29    1
    25    28    30    1
    26    30    31    1
    27    31    32    1
    28     9    10    1
    29    15    16   ar
    30    16    11   ar
    31     6     1   ar
    32    32    30    1
    33    10     3    1
    34    20    21    1
    35    22    23    1
