@<TRIPOS>MOLECULE
*****
 28 30 0 0 0
SMALL
GASTEIGER

@<TRIPOS>ATOM
      1 C         138.5870  140.9472  163.7726 C.ar    1  UNL1        0.1020
      2 C         139.1211  141.5861  165.0202 C.ar    1  UNL1        0.0104
      3 C         139.5237  140.7330  166.1865 C.ar    1  UNL1       -0.0071
      4 C         139.3921  139.2410  166.1052 C.ar    1  UNL1        0.0002
      5 C         138.8580  138.6021  164.8576 C.ar    1  UNL1        0.0373
      6 C         138.4554  139.4552  163.6914 C.ar    1  UNL1        0.1485
      7 C         140.0579  141.3720  167.4341 C.3     1  UNL1        0.0772
      8 C         140.4578  142.8096  167.5867 C.3     1  UNL1        0.0221
      9 C         140.9330  143.0116  168.9950 C.3     1  UNL1        0.0268
     10 C         140.8267  141.6987  169.7129 C.3     1  UNL1        0.1315
     11 N         140.2858  140.6854  168.7482 N.3     1  UNL1       -0.2890
     12 H         139.4054  140.3088  169.0992 H       1  UNL1        0.1239
     13 C         141.1963  141.4440  171.1441 C.2     1  UNL1        0.2336
     14 N         142.3104  140.4951  171.4735 N.am    1  UNL1       -0.3277
     15 O         140.4520  142.1382  172.2460 O.2     1  UNL1       -0.2739
     16 H         142.7989  140.0395  170.7503 H       1  UNL1        0.1450
     17 H         142.5530  140.3279  172.4128 H       1  UNL1        0.1450
     18 N         137.7819  142.6533  161.4401 N.1     1  UNL1       -0.1907
     19 C         138.1844  141.8002  162.6064 C.1     1  UNL1        0.1035
     20 O         137.9212  138.8162  162.4438 O.3     1  UNL1       -0.4699
     21 C         138.8376  138.0340  161.5503 C.3     1  UNL1        0.2342
     22 C         140.2764  138.4361  161.4148 C.ar    1  UNL1        0.0486
     23 C         140.6639  139.5253  160.4591 C.ar    1  UNL1        0.0016
     24 C         142.1026  139.9274  160.3236 C.ar    1  UNL1       -0.0001
     25 C         143.1538  139.2402  161.1438 C.ar    1  UNL1        0.0023
     26 C         142.7663  138.1509  162.0994 C.ar    1  UNL1        0.0294
     27 C         141.3276  137.7488  162.2349 C.ar    1  UNL1        0.1396
     28 F         140.9401  136.6595  163.1906 F       1  UNL1       -0.2044
@<TRIPOS>BOND
     1    18    19    3
     2    19     1    1
     3     1     2   ar
     4     2     3   ar
     5     7     3    1
     6     7     8    1
     7     8     9    1
     8     9    10    1
     9    10    13    1
    10    13    14   am
    11    13    15    2
    12    10    11    1
    13     3     4   ar
    14     4     5   ar
    15     5     6   ar
    16     6    20    1
    17    20    21    1
    18    21    22    1
    19    22    23   ar
    20    23    24   ar
    21    24    25   ar
    22    25    26   ar
    23    26    27   ar
    24    27    28    1
    25     6     1   ar
    26    27    22   ar
    27    11     7    1
    28    14    16    1
    29    14    17    1
    30    11    12    1
@<TRIPOS>MOLECULE
*****
 28 30 0 0 0
SMALL
GASTEIGER

@<TRIPOS>ATOM
      1 C         140.5482  138.6649  164.2488 C.ar    1  UNL1        0.1020
      2 C         141.2719  139.1403  165.4737 C.ar    1  UNL1        0.0104
      3 C         140.4965  139.5660  166.6851 C.ar    1  UNL1       -0.0071
      4 C         138.9974  139.5163  166.6716 C.ar    1  UNL1        0.0002
      5 C         138.2737  139.0409  165.4468 C.ar    1  UNL1        0.0373
      6 C         139.0491  138.6152  164.2354 C.ar    1  UNL1        0.1485
      7 C         141.2202  140.0414  167.9099 C.3     1  UNL1        0.0772
      8 C         142.5336  139.5221  168.4153 C.3     1  UNL1        0.0221
      9 C         142.8827  140.2793  169.6621 C.3     1  UNL1        0.0268
     10 C         141.7851  141.2668  169.9274 C.3     1  UNL1        0.1315
     11 N         140.7576  141.1197  168.8445 N.3     1  UNL1       -0.2890
     12 H         140.6610  141.9993  168.3373 H       1  UNL1        0.1239
     13 C         141.7254  142.2317  171.0742 C.2     1  UNL1        0.2336
     14 N         142.8118  143.2502  171.2547 N.am    1  UNL1       -0.3277
     15 O         140.5794  142.1783  172.0406 O.2     1  UNL1       -0.2739
     16 H         143.5639  143.2853  170.6204 H       1  UNL1        0.1450
     17 H         142.7726  143.8836  172.0074 H       1  UNL1        0.1450
     18 N         142.0990  137.8134  161.8260 N.1     1  UNL1       -0.1907
     19 C         141.3236  138.2391  163.0374 C.1     1  UNL1        0.1035
     20 O         138.3254  138.1397  163.0105 O.3     1  UNL1       -0.4699
     21 C         137.8721  139.1273  161.9765 C.3     1  UNL1        0.2342
     22 C         138.1980  140.5828  162.1358 C.ar    1  UNL1        0.0486
     23 C         137.3148  141.4622  162.9706 C.ar    1  UNL1        0.0016
     24 C         137.6407  142.9176  163.1299 C.ar    1  UNL1       -0.0001
     25 C         138.8497  143.4938  162.4545 C.ar    1  UNL1        0.0023
     26 C         139.7329  142.6144  161.6198 C.ar    1  UNL1        0.0294
     27 C         139.4071  141.1590  161.4604 C.ar    1  UNL1        0.1396
     28 F         140.2903  140.2797  160.6257 F       1  UNL1       -0.2044
@<TRIPOS>BOND
     1    18    19    3
     2    19     1    1
     3     1     2   ar
     4     2     3   ar
     5     7     3    1
     6     7     8    1
     7     8     9    1
     8     9    10    1
     9    10    13    1
    10    13    14   am
    11    13    15    2
    12    10    11    1
    13     3     4   ar
    14     4     5   ar
    15     5     6   ar
    16     6    20    1
    17    20    21    1
    18    21    22    1
    19    22    23   ar
    20    23    24   ar
    21    24    25   ar
    22    25    26   ar
    23    26    27   ar
    24    27    28    1
    25     6     1   ar
    26    27    22   ar
    27    11     7    1
    28    14    16    1
    29    14    17    1
    30    11    12    1
@<TRIPOS>MOLECULE
*****
 28 30 0 0 0
SMALL
GASTEIGER

@<TRIPOS>ATOM
      1 C         141.7735  144.0855  164.0518 C.ar    1  UNL1        0.1020
      2 C         141.7626  143.2126  165.2715 C.ar    1  UNL1        0.0104
      3 C         140.5192  143.1012  166.1031 C.ar    1  UNL1       -0.0071
      4 C         139.2866  143.8628  165.7149 C.ar    1  UNL1        0.0002
      5 C         139.2975  144.7357  164.4951 C.ar    1  UNL1        0.0373
      6 C         140.5409  144.8471  163.6636 C.ar    1  UNL1        0.1485
      7 C         140.5084  142.2282  167.3229 C.3     1  UNL1        0.0772
      8 C         139.9493  140.8389  167.4078 C.3     1  UNL1        0.0221
      9 C         140.1502  140.3433  168.8093 C.3     1  UNL1        0.0268
     10 C         140.8333  141.4264  169.5905 C.3     1  UNL1        0.1315
     11 N         141.0547  142.5913  168.6718 N.3     1  UNL1       -0.2890
     12 H         142.0525  142.7901  168.5991 H       1  UNL1        0.1239
     13 C         141.2261  141.3568  171.0365 C.2     1  UNL1        0.2336
     14 N         142.3612  140.4741  171.4636 N.am    1  UNL1       -0.3277
     15 O         140.4839  142.1700  172.0553 O.2     1  UNL1       -0.2739
     16 H         142.8483  139.9404  170.7950 H       1  UNL1        0.1450
     17 H         142.6190  140.4284  172.4127 H       1  UNL1        0.1450
     18 N         144.2604  144.3083  162.3887 N.1     1  UNL1       -0.1907
     19 C         143.0169  144.1969  163.2203 C.1     1  UNL1        0.1035
     20 O         140.5518  145.7201  162.4438 O.3     1  UNL1       -0.4699
     21 C         139.9460  145.2270  161.1632 C.3     1  UNL1        0.2342
     22 C         139.9804  143.7645  160.8316 C.ar    1  UNL1        0.0486
     23 C         141.1634  143.1858  160.1136 C.ar    1  UNL1        0.0016
     24 C         141.1978  141.7234  159.7820 C.ar    1  UNL1       -0.0001
     25 C         140.0491  140.8396  160.1683 C.ar    1  UNL1        0.0023
     26 C         138.8660  141.4182  160.8863 C.ar    1  UNL1        0.0294
     27 C         138.8317  142.8807  161.2179 C.ar    1  UNL1        0.1396
     28 F         137.6486  143.4593  161.9359 F       1  UNL1       -0.2044
@<TRIPOS>BOND
     1    18    19    3
     2    19     1    1
     3     1     2   ar
     4     2     3   ar
     5     7     3    1
     6     7     8    1
     7     8     9    1
     8     9    10    1
     9    10    13    1
    10    13    14   am
    11    13    15    2
    12    10    11    1
    13     3     4   ar
    14     4     5   ar
    15     5     6   ar
    16     6    20    1
    17    20    21    1
    18    21    22    1
    19    22    23   ar
    20    23    24   ar
    21    24    25   ar
    22    25    26   ar
    23    26    27   ar
    24    27    28    1
    25     6     1   ar
    26    27    22   ar
    27    11     7    1
    28    14    16    1
    29    14    17    1
    30    11    12    1
@<TRIPOS>MOLECULE
*****
 28 30 0 0 0
SMALL
GASTEIGER

@<TRIPOS>ATOM
      1 C         138.7792  142.7179  164.0248 C.ar    1  UNL1        0.1020
      2 C         139.6627  142.8270  165.2321 C.ar    1  UNL1        0.0104
      3 C         139.8000  141.6634  166.1686 C.ar    1  UNL1       -0.0071
      4 C         139.0539  140.3906  165.8978 C.ar    1  UNL1        0.0002
      5 C         138.1705  140.2815  164.6905 C.ar    1  UNL1        0.0373
      6 C         138.0331  141.4452  163.7541 C.ar    1  UNL1        0.1485
      7 C         140.6836  141.7725  167.3759 C.3     1  UNL1        0.0772
      8 C         142.0995  142.2675  167.3905 C.3     1  UNL1        0.0221
      9 C         142.5972  142.2067  168.8042 C.3     1  UNL1        0.0268
     10 C         141.4889  141.6742  169.6634 C.3     1  UNL1        0.1315
     11 N         140.3062  141.4059  168.7807 N.3     1  UNL1       -0.2890
     12 H         139.5125  141.9700  169.0843 H       1  UNL1        0.1239
     13 C         141.5522  141.4495  171.1451 C.2     1  UNL1        0.2336
     14 N         142.5496  140.4852  171.7155 N.am    1  UNL1       -0.3277
     15 O         140.6181  142.1891  172.0564 O.2     1  UNL1       -0.2739
     16 H         143.1627  139.9998  171.1173 H       1  UNL1        0.1450
     17 H         142.5911  140.3377  172.6880 H       1  UNL1        0.1450
     18 N         138.5046  145.0453  162.1518 N.1     1  UNL1       -0.1907
     19 C         138.6419  143.8816  163.0883 C.1     1  UNL1        0.1035
     20 O         137.1496  141.3360  162.5467 O.3     1  UNL1       -0.4699
     21 C         137.4906  140.3680  161.4529 C.3     1  UNL1        0.2342
     22 C         138.9165  139.9577  161.2320 C.ar    1  UNL1        0.0486
     23 C         139.8839  140.9162  160.6032 C.ar    1  UNL1        0.0016
     24 C         141.3097  140.5060  160.3823 C.ar    1  UNL1       -0.0001
     25 C         141.7680  139.1373  160.7901 C.ar    1  UNL1        0.0023
     26 C         140.8006  138.1787  161.4189 C.ar    1  UNL1        0.0294
     27 C         139.3748  138.5889  161.6398 C.ar    1  UNL1        0.1396
     28 F         138.4074  137.6304  162.2685 F       1  UNL1       -0.2044
@<TRIPOS>BOND
     1    18    19    3
     2    19     1    1
     3     1     2   ar
     4     2     3   ar
     5     7     3    1
     6     7     8    1
     7     8     9    1
     8     9    10    1
     9    10    13    1
    10    13    14   am
    11    13    15    2
    12    10    11    1
    13     3     4   ar
    14     4     5   ar
    15     5     6   ar
    16     6    20    1
    17    20    21    1
    18    21    22    1
    19    22    23   ar
    20    23    24   ar
    21    24    25   ar
    22    25    26   ar
    23    26    27   ar
    24    27    28    1
    25     6     1   ar
    26    27    22   ar
    27    11     7    1
    28    14    16    1
    29    14    17    1
    30    11    12    1
@<TRIPOS>MOLECULE
*****
 28 30 0 0 0
SMALL
GASTEIGER

@<TRIPOS>ATOM
      1 C         141.0657  138.8193  163.9821 C.ar    1  UNL1        0.1020
      2 C         140.5605  139.3812  165.2778 C.ar    1  UNL1        0.0104
      3 C         141.5047  139.5866  166.4251 C.ar    1  UNL1       -0.0071
      4 C         142.9541  139.2301  166.2766 C.ar    1  UNL1        0.0002
      5 C         143.4593  138.6682  164.9809 C.ar    1  UNL1        0.0373
      6 C         142.5151  138.4628  163.8336 C.ar    1  UNL1        0.1485
      7 C         140.9995  140.1486  167.7209 C.3     1  UNL1        0.0772
      8 C         139.5983  140.0357  168.2442 C.3     1  UNL1        0.0221
      9 C         139.5396  140.7394  169.5675 C.3     1  UNL1        0.0268
     10 C         140.9046  141.2873  169.8622 C.3     1  UNL1        0.1315
     11 N         141.8068  140.9221  168.7209 N.3     1  UNL1       -0.2890
     12 H         142.5792  140.3487  169.0600 H       1  UNL1        0.1239
     13 C         141.2982  142.0639  171.0836 C.2     1  UNL1        0.2336
     14 N         142.6533  142.7022  171.1621 N.am    1  UNL1       -0.3277
     15 O         140.3366  142.2023  172.2265 O.2     1  UNL1       -0.2739
     16 H         143.2844  142.6114  170.4120 H       1  UNL1        0.1450
     17 H         142.9117  143.2119  171.9638 H       1  UNL1        0.1450
     18 N         139.1772  138.4084  161.6875 N.1     1  UNL1       -0.1907
     19 C         140.1215  138.6139  162.8348 C.1     1  UNL1        0.1035
     20 O         143.0203  137.9008  162.5378 O.3     1  UNL1       -0.4699
     21 C         144.0954  138.6190  161.7773 C.3     1  UNL1        0.2342
     22 C         144.0094  140.1033  161.5782 C.ar    1  UNL1        0.0486
     23 C         143.1242  140.6662  160.5060 C.ar    1  UNL1        0.0016
     24 C         143.0382  142.1504  160.3069 C.ar    1  UNL1       -0.0001
     25 C         143.8374  143.0717  161.1800 C.ar    1  UNL1        0.0023
     26 C         144.7226  142.5089  162.2522 C.ar    1  UNL1        0.0294
     27 C         144.8086  141.0247  162.4513 C.ar    1  UNL1        0.1396
     28 F         145.6938  140.4618  163.5235 F       1  UNL1       -0.2044
@<TRIPOS>BOND
     1    18    19    3
     2    19     1    1
     3     1     2   ar
     4     2     3   ar
     5     7     3    1
     6     7     8    1
     7     8     9    1
     8     9    10    1
     9    10    13    1
    10    13    14   am
    11    13    15    2
    12    10    11    1
    13     3     4   ar
    14     4     5   ar
    15     5     6   ar
    16     6    20    1
    17    20    21    1
    18    21    22    1
    19    22    23   ar
    20    23    24   ar
    21    24    25   ar
    22    25    26   ar
    23    26    27   ar
    24    27    28    1
    25     6     1   ar
    26    27    22   ar
    27    11     7    1
    28    14    16    1
    29    14    17    1
    30    11    12    1
@<TRIPOS>MOLECULE
*****
 28 30 0 0 0
SMALL
GASTEIGER

@<TRIPOS>ATOM
      1 C         141.4746  138.6215  164.2741 C.ar    1  UNL1        0.1020
      2 C         141.3500  139.1724  165.6636 C.ar    1  UNL1        0.0104
      3 C         140.0454  139.0701  166.3968 C.ar    1  UNL1       -0.0071
      4 C         138.8654  138.4168  165.7405 C.ar    1  UNL1        0.0002
      5 C         138.9900  137.8659  164.3510 C.ar    1  UNL1        0.0373
      6 C         140.2946  137.9682  163.6177 C.ar    1  UNL1        0.1485
      7 C         139.9208  139.6211  167.7865 C.3     1  UNL1        0.0772
      8 C         138.6402  139.8457  168.5344 C.3     1  UNL1        0.0221
      9 C         138.9830  140.4076  169.8823 C.3     1  UNL1        0.0268
     10 C         140.4756  140.5303  169.9674 C.3     1  UNL1        0.1315
     11 N         141.0552  140.0442  168.6721 N.3     1  UNL1       -0.2890
     12 H         141.6733  139.2516  168.8453 H       1  UNL1        0.1239
     13 C         141.2521  141.0482  171.1416 C.2     1  UNL1        0.2336
     14 N         142.5954  140.4660  171.4680 N.am    1  UNL1       -0.3277
     15 O         140.6853  142.1482  171.9893 O.2     1  UNL1       -0.2739
     16 H         142.9674  139.7440  170.9116 H       1  UNL1        0.1450
     17 H         143.1051  140.8059  172.2387 H       1  UNL1        0.1450
     18 N         144.0837  138.8262  162.8077 N.1     1  UNL1       -0.1907
     19 C         142.7792  138.7238  163.5409 C.1     1  UNL1        0.1035
     20 O         140.4191  137.4173  162.2281 O.3     1  UNL1       -0.4699
     21 C         140.2662  138.3259  161.0445 C.3     1  UNL1        0.2342
     22 C         139.7813  139.7324  161.2364 C.ar    1  UNL1        0.0486
     23 C         140.7518  140.8747  161.1793 C.ar    1  UNL1        0.0016
     24 C         140.2670  142.2811  161.3711 C.ar    1  UNL1       -0.0001
     25 C         138.8116  142.5452  161.6202 C.ar    1  UNL1        0.0023
     26 C         137.8411  141.4030  161.6774 C.ar    1  UNL1        0.0294
     27 C         138.3259  139.9965  161.4855 C.ar    1  UNL1        0.1396
     28 F         137.3554  138.8543  161.5427 F       1  UNL1       -0.2044
@<TRIPOS>BOND
     1    18    19    3
     2    19     1    1
     3     1     2   ar
     4     2     3   ar
     5     7     3    1
     6     7     8    1
     7     8     9    1
     8     9    10    1
     9    10    13    1
    10    13    14   am
    11    13    15    2
    12    10    11    1
    13     3     4   ar
    14     4     5   ar
    15     5     6   ar
    16     6    20    1
    17    20    21    1
    18    21    22    1
    19    22    23   ar
    20    23    24   ar
    21    24    25   ar
    22    25    26   ar
    23    26    27   ar
    24    27    28    1
    25     6     1   ar
    26    27    22   ar
    27    11     7    1
    28    14    16    1
    29    14    17    1
    30    11    12    1
@<TRIPOS>MOLECULE
*****
 28 30 0 0 0
SMALL
GASTEIGER

@<TRIPOS>ATOM
      1 C         140.2220  143.0386  163.9266 C.ar    1  UNL1        0.1020
      2 C         140.3939  142.8713  165.4073 C.ar    1  UNL1        0.0104
      3 C         141.6153  142.1890  165.9482 C.ar    1  UNL1       -0.0071
      4 C         142.6649  141.6741  165.0084 C.ar    1  UNL1        0.0002
      5 C         142.4930  141.8414  163.5278 C.ar    1  UNL1        0.0373
      6 C         141.2716  142.5237  162.9869 C.ar    1  UNL1        0.1485
      7 C         141.7872  142.0218  167.4289 C.3     1  UNL1        0.0772
      8 C         143.0390  142.2974  168.2080 C.3     1  UNL1        0.0221
      9 C         142.7628  141.9955  169.6511 C.3     1  UNL1        0.0268
     10 C         141.3403  141.5331  169.7640 C.3     1  UNL1        0.1315
     11 N         140.7373  141.5494  168.3906 N.3     1  UNL1       -0.2890
     12 H         139.9389  142.1839  168.3706 H       1  UNL1        0.1239
     13 C         140.6432  141.1260  171.0282 C.2     1  UNL1        0.2336
     14 N         140.0606  139.7495  171.1535 N.am    1  UNL1       -0.3277
     15 O         140.5287  142.0955  172.1671 O.2     1  UNL1       -0.2739
     16 H         140.1357  139.1132  170.4060 H       1  UNL1        0.1450
     17 H         139.6030  139.4823  171.9832 H       1  UNL1        0.1450
     18 N         137.7791  144.4031  162.8448 N.1     1  UNL1       -0.1907
     19 C         139.0005  143.7209  163.3857 C.1     1  UNL1        0.1035
     20 O         141.0997  142.6910  161.5061 O.3     1  UNL1       -0.4699
     21 C         140.7711  141.5037  160.6503 C.3     1  UNL1        0.2342
     22 C         140.0509  140.3286  161.2425 C.ar    1  UNL1        0.0486
     23 C         140.8122  139.0892  161.6087 C.ar    1  UNL1        0.0016
     24 C         140.0921  137.9141  162.2008 C.ar    1  UNL1       -0.0001
     25 C         138.6107  137.9786  162.4268 C.ar    1  UNL1        0.0023
     26 C         137.8493  139.2180  162.0606 C.ar    1  UNL1        0.0294
     27 C         138.5694  140.3931  161.4685 C.ar    1  UNL1        0.1396
     28 F         137.8081  141.6325  161.1023 F       1  UNL1       -0.2044
@<TRIPOS>BOND
     1    18    19    3
     2    19     1    1
     3     1     2   ar
     4     2     3   ar
     5     7     3    1
     6     7     8    1
     7     8     9    1
     8     9    10    1
     9    10    13    1
    10    13    14   am
    11    13    15    2
    12    10    11    1
    13     3     4   ar
    14     4     5   ar
    15     5     6   ar
    16     6    20    1
    17    20    21    1
    18    21    22    1
    19    22    23   ar
    20    23    24   ar
    21    24    25   ar
    22    25    26   ar
    23    26    27   ar
    24    27    28    1
    25     6     1   ar
    26    27    22   ar
    27    11     7    1
    28    14    16    1
    29    14    17    1
    30    11    12    1
@<TRIPOS>MOLECULE
*****
 28 30 0 0 0
SMALL
GASTEIGER

@<TRIPOS>ATOM
      1 C         143.0969  141.0932  163.7808 C.ar    1  UNL1        0.1020
      2 C         142.7786  141.5789  165.1638 C.ar    1  UNL1        0.0104
      3 C         142.8291  140.6280  166.3228 C.ar    1  UNL1       -0.0071
      4 C         143.1980  139.1915  166.0988 C.ar    1  UNL1        0.0002
      5 C         143.5163  138.7058  164.7158 C.ar    1  UNL1        0.0373
      6 C         143.4658  139.6566  163.5568 C.ar    1  UNL1        0.1485
      7 C         142.5108  141.1138  167.7058 C.3     1  UNL1        0.0772
      8 C         143.1227  142.3028  168.3853 C.3     1  UNL1        0.0221
      9 C         142.5147  142.4197  169.7516 C.3     1  UNL1        0.0268
     10 C         141.5270  141.3028  169.9165 C.3     1  UNL1        0.1315
     11 N         141.5246  140.4958  168.6522 N.3     1  UNL1       -0.2890
     12 H         140.5931  140.5060  168.2368 H       1  UNL1        0.1239
     13 C         140.6889  141.0393  171.1323 C.2     1  UNL1        0.2336
     14 N         139.9622  139.7348  171.2739 N.am    1  UNL1       -0.3277
     15 O         140.5775  142.0804  172.2065 O.2     1  UNL1       -0.2739
     16 H         140.0354  139.0515  170.5689 H       1  UNL1        0.1450
     17 H         139.4122  139.5618  172.0719 H       1  UNL1        0.1450
     18 N         142.9959  142.9949  161.4627 N.1     1  UNL1       -0.1907
     19 C         143.0464  142.0440  162.6218 C.1     1  UNL1        0.1035
     20 O         143.7841  139.1709  162.1737 O.3     1  UNL1       -0.4699
     21 C         142.7608  138.3972  161.3965 C.3     1  UNL1        0.2342
     22 C         141.3064  138.5180  161.7436 C.ar    1  UNL1        0.0486
     23 C         140.6728  137.5271  162.6745 C.ar    1  UNL1        0.0016
     24 C         139.2185  137.6478  163.0216 C.ar    1  UNL1       -0.0001
     25 C         138.3980  138.7595  162.4378 C.ar    1  UNL1        0.0023
     26 C         139.0316  139.7504  161.5070 C.ar    1  UNL1        0.0294
     27 C         140.4859  139.6297  161.1599 C.ar    1  UNL1        0.1396
     28 F         141.1196  140.6206  160.2290 F       1  UNL1       -0.2044
@<TRIPOS>BOND
     1    18    19    3
     2    19     1    1
     3     1     2   ar
     4     2     3   ar
     5     7     3    1
     6     7     8    1
     7     8     9    1
     8     9    10    1
     9    10    13    1
    10    13    14   am
    11    13    15    2
    12    10    11    1
    13     3     4   ar
    14     4     5   ar
    15     5     6   ar
    16     6    20    1
    17    20    21    1
    18    21    22    1
    19    22    23   ar
    20    23    24   ar
    21    24    25   ar
    22    25    26   ar
    23    26    27   ar
    24    27    28    1
    25     6     1   ar
    26    27    22   ar
    27    11     7    1
    28    14    16    1
    29    14    17    1
    30    11    12    1
@<TRIPOS>MOLECULE
*****
 28 30 0 0 0
SMALL
GASTEIGER

@<TRIPOS>ATOM
      1 C         140.6194  141.9930  163.8008 C.ar    1  UNL1        0.1020
      2 C         140.3684  142.0686  165.2777 C.ar    1  UNL1        0.0104
      3 C         140.0949  140.8165  166.0571 C.ar    1  UNL1       -0.0071
      4 C         140.0723  139.4888  165.3596 C.ar    1  UNL1        0.0002
      5 C         140.3233  139.4132  163.8827 C.ar    1  UNL1        0.0373
      6 C         140.5968  140.6653  163.1033 C.ar    1  UNL1        0.1485
      7 C         139.8439  140.8922  167.5341 C.3     1  UNL1        0.0772
      8 C         139.1215  139.8688  168.3592 C.3     1  UNL1        0.0221
      9 C         139.1024  140.3487  169.7802 C.3     1  UNL1        0.0268
     10 C         139.8131  141.6686  169.8334 C.3     1  UNL1        0.1315
     11 N         140.2713  142.0045  168.4452 N.3     1  UNL1       -0.2890
     12 H         141.2872  142.0947  168.4283 H       1  UNL1        0.1239
     13 C         140.0278  142.5057  171.0594 C.2     1  UNL1        0.2336
     14 N         138.9692  143.4715  171.5030 N.am    1  UNL1       -0.3277
     15 O         141.3010  142.3770  171.8420 O.2     1  UNL1       -0.2739
     16 H         138.1335  143.5559  170.9893 H       1  UNL1        0.1450
     17 H         139.1101  144.0209  172.3077 H       1  UNL1        0.1450
     18 N         141.1665  144.4972  162.2421 N.1     1  UNL1       -0.1907
     19 C         140.8929  143.2451  163.0215 C.1     1  UNL1        0.1035
     20 O         140.8478  140.5896  161.6263 O.3     1  UNL1       -0.4699
     21 C         142.2460  140.4183  161.1110 C.3     1  UNL1        0.2342
     22 C         143.4152  140.6715  162.0159 C.ar    1  UNL1        0.0486
     23 C         144.1035  142.0042  161.9969 C.ar    1  UNL1        0.0016
     24 C         145.2726  142.2575  162.9018 C.ar    1  UNL1       -0.0001
     25 C         145.7535  141.1781  163.8257 C.ar    1  UNL1        0.0023
     26 C         145.0653  139.8455  163.8448 C.ar    1  UNL1        0.0294
     27 C         143.8961  139.5922  162.9399 C.ar    1  UNL1        0.1396
     28 F         143.2078  138.2595  162.9589 F       1  UNL1       -0.2044
@<TRIPOS>BOND
     1    18    19    3
     2    19     1    1
     3     1     2   ar
     4     2     3   ar
     5     7     3    1
     6     7     8    1
     7     8     9    1
     8     9    10    1
     9    10    13    1
    10    13    14   am
    11    13    15    2
    12    10    11    1
    13     3     4   ar
    14     4     5   ar
    15     5     6   ar
    16     6    20    1
    17    20    21    1
    18    21    22    1
    19    22    23   ar
    20    23    24   ar
    21    24    25   ar
    22    25    26   ar
    23    26    27   ar
    24    27    28    1
    25     6     1   ar
    26    27    22   ar
    27    11     7    1
    28    14    16    1
    29    14    17    1
    30    11    12    1
