@<TRIPOS>MOLECULE
*****
 33 36 0 0 0
SMALL
GASTEIGER

@<TRIPOS>ATOM
      1 N         139.9452  138.2815  160.2472 N.pl3   1  UNL1       -0.2812
      2 H         139.3493  137.7026  159.7190 H       1  UNL1        0.1551
      3 C         138.4527  139.7498  163.6186 C.ar    1  UNL1        0.1330
      4 N         138.7126  139.5411  162.1561 N.ar    1  UNL1       -0.1988
      5 C         139.6853  138.4901  161.7097 C.ar    1  UNL1        0.2219
      6 N         140.3980  137.6478  162.7258 N.ar    1  UNL1       -0.2119
      7 C         140.1381  137.8564  164.1883 C.ar    1  UNL1        0.1047
      8 C         139.1654  138.9074  164.6346 C.ar    1  UNL1        0.0537
      9 C         138.9055  139.1161  166.0972 C.ar    1  UNL1        0.0438
     10 C         137.7684  138.5329  166.8826 C.ar    1  UNL1        0.1218
     11 N         137.8972  139.0009  168.3019 N.ar    1  UNL1       -0.1676
     12 N         139.1139  139.8734  168.3936 N.ar    1  UNL1       -0.2473
     13 C         139.6188  140.5551  169.6307 C.3     1  UNL1        0.1538
     14 C         139.7370  139.9446  167.0311 C.ar    1  UNL1        0.0968
     15 C         137.9169  142.2320  164.1674 C.3     1  UNL1        0.1096
     16 N         137.4800  140.8008  164.0650 N.pl3   1  UNL1       -0.3166
     17 H         136.5548  140.5512  164.2908 H       1  UNL1        0.1482
     18 C         141.1132  138.9547  159.5895 C.ar    1  UNL1        0.0730
     19 C         142.1538  138.1341  158.8868 C.ar    1  UNL1        0.1144
     20 N         143.3218  138.8073  158.2291 N.ar    1  UNL1       -0.2293
     21 C         143.4491  140.3013  158.2742 C.ar    1  UNL1        0.1831
     22 C         142.4086  141.1219  158.9769 C.ar    1  UNL1        0.1670
     23 C         141.2406  140.4486  159.6345 C.ar    1  UNL1        0.0554
     24 C         144.6171  140.9746  157.6165 C.1     1  UNL1        0.1229
     25 N         145.7851  141.6479  156.9588 N.1     1  UNL1       -0.1892
     26 O         142.5360  142.6158  159.0219 O.3     1  UNL1       -0.4755
     27 C         142.8887  143.3000  160.3094 C.3     1  UNL1        0.1817
     28 C         144.1254  142.8990  161.0574 C.3     1  UNL1        0.0464
     29 C         144.4782  143.5832  162.3449 C.3     1  UNL1        0.0208
     30 C         143.5941  144.6683  162.8843 C.3     1  UNL1        0.0688
     31 N         142.3573  145.0692  162.1362 N.3     1  UNL1       -0.2945
     32 C         142.0046  144.3851  160.8488 C.3     1  UNL1        0.1126
     33 H         142.4495  146.0630  161.9259 H       1  UNL1        0.1234
@<TRIPOS>BOND
     1    15    16    1
     2    16     3    1
     3     3     4   ar
     4     4     5   ar
     5     5     1    1
     6     1    18    1
     7    18    19   ar
     8    19    20   ar
     9    20    21   ar
    10    21    24    1
    11    24    25    3
    12    21    22   ar
    13    22    26    1
    14    27    26    1
    15    27    28    1
    16    28    29    1
    17    29    30    1
    18    30    31    1
    19    31    32    1
    20    22    23   ar
    21     5     6   ar
    22     6     7   ar
    23     7     8   ar
    24     8     9    1
    25     9    10   ar
    26    10    11   ar
    27    11    12   ar
    28    12    13    1
    29    12    14   ar
    30     8     3   ar
    31    14     9   ar
    32    23    18   ar
    33    32    27    1
    34    16    17    1
    35     1     2    1
    36    31    33    1
@<TRIPOS>MOLECULE
*****
 33 36 0 0 0
SMALL
GASTEIGER

@<TRIPOS>ATOM
      1 N         143.4405  138.6060  166.9189 N.pl3   1  UNL1       -0.2812
      2 H         144.1019  138.0127  167.3430 H       1  UNL1        0.1551
      3 C         141.8157  137.9432  163.3593 C.ar    1  UNL1        0.1330
      4 N         142.0062  137.9741  164.8468 N.ar    1  UNL1       -0.1988
      5 C         143.2500  138.5751  165.4313 C.ar    1  UNL1        0.2219
      6 N         144.3034  139.1452  164.5284 N.ar    1  UNL1       -0.2119
      7 C         144.1129  139.1143  163.0409 C.ar    1  UNL1        0.1047
      8 C         142.8691  138.5133  162.4563 C.ar    1  UNL1        0.0537
      9 C         142.6787  138.4824  160.9687 C.ar    1  UNL1        0.0438
     10 C         142.1281  139.5953  160.1271 C.ar    1  UNL1        0.1218
     11 N         142.1145  139.1339  158.6998 N.ar    1  UNL1       -0.1676
     12 N         142.6568  137.7358  158.6595 N.ar    1  UNL1       -0.2473
     13 C         142.8214  136.8891  157.4323 C.3     1  UNL1        0.1538
     14 C         143.0054  137.3333  160.0617 C.ar    1  UNL1        0.0968
     15 C         139.2340  137.9531  163.0690 C.3     1  UNL1        0.1096
     16 N         140.5719  137.3422  162.7747 N.pl3   1  UNL1       -0.3166
     17 H         140.6337  136.5468  162.1979 H       1  UNL1        0.1482
     18 C         142.6231  139.5408  167.7604 C.ar    1  UNL1        0.0730
     19 C         142.3781  139.2279  169.2069 C.ar    1  UNL1        0.1144
     20 N         141.5607  140.1627  170.0484 N.ar    1  UNL1       -0.2293
     21 C         140.9884  141.4103  169.4434 C.ar    1  UNL1        0.1831
     22 C         141.2334  141.7231  167.9970 C.ar    1  UNL1        0.1670
     23 C         142.0508  140.7884  167.1555 C.ar    1  UNL1        0.0554
     24 C         140.1710  142.3451  170.2849 C.1     1  UNL1        0.1229
     25 N         139.3536  143.2799  171.1264 N.1     1  UNL1       -0.1892
     26 O         140.6611  142.9708  167.3921 O.3     1  UNL1       -0.4755
     27 C         139.7256  142.8767  166.2233 C.3     1  UNL1        0.1817
     28 C         139.2689  144.1237  165.5260 C.3     1  UNL1        0.0464
     29 C         138.3334  144.0296  164.3572 C.3     1  UNL1        0.0208
     30 C         137.8546  142.6885  163.8858 C.3     1  UNL1        0.0688
     31 N         138.3114  141.4415  164.5832 N.3     1  UNL1       -0.2945
     32 C         139.2469  141.5356  165.7519 C.3     1  UNL1        0.1126
     33 H         138.7744  140.8643  163.8812 H       1  UNL1        0.1234
@<TRIPOS>BOND
     1    15    16    1
     2    16     3    1
     3     3     4   ar
     4     4     5   ar
     5     5     1    1
     6     1    18    1
     7    18    19   ar
     8    19    20   ar
     9    20    21   ar
    10    21    24    1
    11    24    25    3
    12    21    22   ar
    13    22    26    1
    14    27    26    1
    15    27    28    1
    16    28    29    1
    17    29    30    1
    18    30    31    1
    19    31    32    1
    20    22    23   ar
    21     5     6   ar
    22     6     7   ar
    23     7     8   ar
    24     8     9    1
    25     9    10   ar
    26    10    11   ar
    27    11    12   ar
    28    12    13    1
    29    12    14   ar
    30     8     3   ar
    31    14     9   ar
    32    23    18   ar
    33    32    27    1
    34    16    17    1
    35     1     2    1
    36    31    33    1
@<TRIPOS>MOLECULE
*****
 33 36 0 0 0
SMALL
GASTEIGER

@<TRIPOS>ATOM
      1 N         138.5444  139.0253  159.5743 N.pl3   1  UNL1       -0.2812
      2 H         137.6989  139.2088  159.1045 H       1  UNL1        0.1551
      3 C         138.0868  140.3679  163.2808 C.ar    1  UNL1        0.1330
      4 N         138.0285  140.2908  161.7840 N.ar    1  UNL1       -0.1988
      5 C         138.6028  139.1024  161.0713 C.ar    1  UNL1        0.2219
      6 N         139.2353  137.9911  161.8554 N.ar    1  UNL1       -0.2119
      7 C         139.2937  138.0683  163.3522 C.ar    1  UNL1        0.1047
      8 C         138.7194  139.2566  164.0649 C.ar    1  UNL1        0.0537
      9 C         138.7777  139.3337  165.5619 C.ar    1  UNL1        0.0438
     10 C         137.8604  138.6298  166.5174 C.ar    1  UNL1        0.1218
     11 N         138.2794  138.9893  167.9121 N.ar    1  UNL1       -0.1676
     12 N         139.4557  139.9154  167.8186 N.ar    1  UNL1       -0.2473
     13 C         140.1943  140.5221  168.9746 C.3     1  UNL1        0.1538
     14 C         139.7637  140.1283  166.3661 C.ar    1  UNL1        0.0968
     15 C         137.6356  142.9241  163.3904 C.3     1  UNL1        0.1096
     16 N         137.5126  141.5563  163.9936 N.pl3   1  UNL1       -0.3166
     17 H         137.0549  141.4385  164.8572 H       1  UNL1        0.1482
     18 C         139.7743  138.6687  158.7932 C.ar    1  UNL1        0.0730
     19 C         139.6648  137.7927  157.5805 C.ar    1  UNL1        0.1144
     20 N         140.8947  137.4361  156.7994 N.ar    1  UNL1       -0.2293
     21 C         142.2342  137.9555  157.2310 C.ar    1  UNL1        0.1831
     22 C         142.3436  138.8314  158.4437 C.ar    1  UNL1        0.1670
     23 C         141.1137  139.1881  159.2248 C.ar    1  UNL1        0.0554
     24 C         143.4641  137.5988  156.4499 C.1     1  UNL1        0.1229
     25 N         144.6940  137.2422  155.6688 N.1     1  UNL1       -0.1892
     26 O         143.6831  139.3508  158.8753 O.3     1  UNL1       -0.4755
     27 C         143.9368  139.6615  160.3207 C.3     1  UNL1        0.1817
     28 C         143.9735  141.0870  160.7861 C.3     1  UNL1        0.0464
     29 C         144.2272  141.3977  162.2315 C.3     1  UNL1        0.0208
     30 C         144.4442  140.2829  163.2114 C.3     1  UNL1        0.0688
     31 N         144.4074  138.8574  162.7459 N.3     1  UNL1       -0.2945
     32 C         144.1537  138.5467  161.3006 C.3     1  UNL1        0.1126
     33 H         143.6738  138.3919  163.2803 H       1  UNL1        0.1234
@<TRIPOS>BOND
     1    15    16    1
     2    16     3    1
     3     3     4   ar
     4     4     5   ar
     5     5     1    1
     6     1    18    1
     7    18    19   ar
     8    19    20   ar
     9    20    21   ar
    10    21    24    1
    11    24    25    3
    12    21    22   ar
    13    22    26    1
    14    27    26    1
    15    27    28    1
    16    28    29    1
    17    29    30    1
    18    30    31    1
    19    31    32    1
    20    22    23   ar
    21     5     6   ar
    22     6     7   ar
    23     7     8   ar
    24     8     9    1
    25     9    10   ar
    26    10    11   ar
    27    11    12   ar
    28    12    13    1
    29    12    14   ar
    30     8     3   ar
    31    14     9   ar
    32    23    18   ar
    33    32    27    1
    34    16    17    1
    35     1     2    1
    36    31    33    1
@<TRIPOS>MOLECULE
*****
 33 36 0 0 0
SMALL
GASTEIGER

@<TRIPOS>ATOM
      1 N         138.7550  138.1178  163.4995 N.pl3   1  UNL1       -0.2812
      2 H         138.4119  137.1950  163.4977 H       1  UNL1        0.1551
      3 C         141.5563  139.2876  166.0558 C.ar    1  UNL1        0.1330
      4 N         140.9036  138.7325  164.8246 N.ar    1  UNL1       -0.1988
      5 C         139.4077  138.6729  164.7308 C.ar    1  UNL1        0.2219
      6 N         138.5646  139.1684  165.8681 N.ar    1  UNL1       -0.2119
      7 C         139.2173  139.7235  167.0992 C.ar    1  UNL1        0.1047
      8 C         140.7132  139.7831  167.1931 C.ar    1  UNL1        0.0537
      9 C         141.3659  140.3382  168.4243 C.ar    1  UNL1        0.0438
     10 C         141.7333  139.5616  169.6538 C.ar    1  UNL1        0.1218
     11 N         142.3603  140.5108  170.6315 N.ar    1  UNL1       -0.1676
     12 N         142.3803  141.8742  170.0062 N.ar    1  UNL1       -0.2473
     13 C         142.9200  143.1246  170.6347 C.3     1  UNL1        0.1538
     14 C         141.7657  141.7675  168.6421 C.ar    1  UNL1        0.0968
     15 C         143.8354  138.1021  166.4438 C.3     1  UNL1        0.1096
     16 N         143.0522  139.3471  166.1496 N.pl3   1  UNL1       -0.3166
     17 H         143.5200  140.2034  166.0181 H       1  UNL1        0.1482
     18 C         138.6251  138.9686  162.2710 C.ar    1  UNL1        0.0730
     19 C         138.8728  138.3732  160.9167 C.ar    1  UNL1        0.1144
     20 N         138.7429  139.2240  159.6882 N.ar    1  UNL1       -0.2293
     21 C         138.3653  140.6703  159.8141 C.ar    1  UNL1        0.1831
     22 C         138.1177  141.2657  161.1684 C.ar    1  UNL1        0.1670
     23 C         138.2476  140.4148  162.3969 C.ar    1  UNL1        0.0554
     24 C         138.2354  141.5212  158.5856 C.1     1  UNL1        0.1229
     25 N         138.1055  142.3720  157.3571 N.1     1  UNL1       -0.1892
     26 O         137.7401  142.7120  161.2942 O.3     1  UNL1       -0.4755
     27 C         138.1725  143.4981  162.4963 C.3     1  UNL1        0.1817
     28 C         137.4022  143.3916  163.7789 C.3     1  UNL1        0.0464
     29 C         137.8346  144.1778  164.9810 C.3     1  UNL1        0.0208
     30 C         139.0374  145.0705  164.9004 C.3     1  UNL1        0.0688
     31 N         139.8078  145.1770  163.6177 N.3     1  UNL1       -0.2945
     32 C         139.3753  144.3908  162.4156 C.3     1  UNL1        0.1126
     33 H         140.7657  144.8946  163.8252 H       1  UNL1        0.1234
@<TRIPOS>BOND
     1    15    16    1
     2    16     3    1
     3     3     4   ar
     4     4     5   ar
     5     5     1    1
     6     1    18    1
     7    18    19   ar
     8    19    20   ar
     9    20    21   ar
    10    21    24    1
    11    24    25    3
    12    21    22   ar
    13    22    26    1
    14    27    26    1
    15    27    28    1
    16    28    29    1
    17    29    30    1
    18    30    31    1
    19    31    32    1
    20    22    23   ar
    21     5     6   ar
    22     6     7   ar
    23     7     8   ar
    24     8     9    1
    25     9    10   ar
    26    10    11   ar
    27    11    12   ar
    28    12    13    1
    29    12    14   ar
    30     8     3   ar
    31    14     9   ar
    32    23    18   ar
    33    32    27    1
    34    16    17    1
    35     1     2    1
    36    31    33    1
@<TRIPOS>MOLECULE
*****
 33 36 0 0 0
SMALL
GASTEIGER

@<TRIPOS>ATOM
      1 N         137.5919  139.9892  159.7349 N.pl3   1  UNL1       -0.2812
      2 H         136.9146  139.4190  159.3045 H       1  UNL1        0.1551
      3 C         137.6734  140.9390  163.5874 C.ar    1  UNL1        0.1330
      4 N         137.4420  141.0351  162.1085 N.ar    1  UNL1       -0.1988
      5 C         137.8233  139.8930  161.2139 C.ar    1  UNL1        0.2219
      6 N         138.4358  138.6548  161.7982 N.ar    1  UNL1       -0.2119
      7 C         138.6672  138.5587  163.2771 C.ar    1  UNL1        0.1047
      8 C         138.2859  139.7008  164.1717 C.ar    1  UNL1        0.0537
      9 C         138.5173  139.6046  165.6507 C.ar    1  UNL1        0.0438
     10 C         137.7185  138.7802  166.6162 C.ar    1  UNL1        0.1218
     11 N         138.2956  138.9821  167.9860 N.ar    1  UNL1       -0.1676
     12 N         139.4511  139.9312  167.8670 N.ar    1  UNL1       -0.2473
     13 C         140.3174  140.4113  168.9934 C.3     1  UNL1        0.1538
     14 C         139.5881  140.3159  166.4236 C.ar    1  UNL1        0.0968
     15 C         138.0553  143.3708  164.4182 C.3     1  UNL1        0.1096
     16 N         137.2921  142.0811  164.4819 N.pl3   1  UNL1       -0.3166
     17 H         136.5410  141.9842  165.1109 H       1  UNL1        0.1482
     18 C         138.3926  140.9543  158.9117 C.ar    1  UNL1        0.0730
     19 C         138.9257  140.5362  157.5734 C.ar    1  UNL1        0.1144
     20 N         139.7264  141.5012  156.7503 N.ar    1  UNL1       -0.2293
     21 C         139.9939  142.8844  157.2654 C.ar    1  UNL1        0.1831
     22 C         139.4608  143.3025  158.6037 C.ar    1  UNL1        0.1670
     23 C         138.6601  142.3374  159.4268 C.ar    1  UNL1        0.0554
     24 C         140.7946  143.8495  156.4423 C.1     1  UNL1        0.1229
     25 N         141.5952  144.8145  155.6191 N.1     1  UNL1       -0.1892
     26 O         139.7283  144.6857  159.1188 O.3     1  UNL1       -0.4755
     27 C         140.4339  144.8746  160.4289 C.3     1  UNL1        0.1817
     28 C         141.6361  144.0411  160.7603 C.3     1  UNL1        0.0464
     29 C         142.3418  144.2300  162.0704 C.3     1  UNL1        0.0208
     30 C         141.8452  145.2525  163.0491 C.3     1  UNL1        0.0688
     31 N         140.6429  146.0861  162.7177 N.3     1  UNL1       -0.2945
     32 C         139.9373  145.8971  161.4076 C.3     1  UNL1        0.1126
     33 H         140.9415  147.0608  162.7534 H       1  UNL1        0.1234
@<TRIPOS>BOND
     1    15    16    1
     2    16     3    1
     3     3     4   ar
     4     4     5   ar
     5     5     1    1
     6     1    18    1
     7    18    19   ar
     8    19    20   ar
     9    20    21   ar
    10    21    24    1
    11    24    25    3
    12    21    22   ar
    13    22    26    1
    14    27    26    1
    15    27    28    1
    16    28    29    1
    17    29    30    1
    18    30    31    1
    19    31    32    1
    20    22    23   ar
    21     5     6   ar
    22     6     7   ar
    23     7     8   ar
    24     8     9    1
    25     9    10   ar
    26    10    11   ar
    27    11    12   ar
    28    12    13    1
    29    12    14   ar
    30     8     3   ar
    31    14     9   ar
    32    23    18   ar
    33    32    27    1
    34    16    17    1
    35     1     2    1
    36    31    33    1
@<TRIPOS>MOLECULE
*****
 33 36 0 0 0
SMALL
GASTEIGER

@<TRIPOS>ATOM
      1 N         138.7023  137.4884  164.1937 N.pl3   1  UNL1       -0.2812
      2 H         138.0194  136.7809  164.1453 H       1  UNL1        0.1551
      3 C         141.9027  137.9136  161.8857 C.ar    1  UNL1        0.1330
      4 N         141.0464  137.6147  163.0804 N.ar    1  UNL1       -0.1988
      5 C         139.5586  137.7873  162.9989 C.ar    1  UNL1        0.2219
      6 N         138.9271  138.2588  161.7227 N.ar    1  UNL1       -0.2119
      7 C         139.7833  138.5577  160.5280 C.ar    1  UNL1        0.1047
      8 C         141.2711  138.3851  160.6095 C.ar    1  UNL1        0.0537
      9 C         142.1274  138.6840  159.4146 C.ar    1  UNL1        0.0438
     10 C         142.4545  137.7308  158.3036 C.ar    1  UNL1        0.1218
     11 N         143.3361  138.4463  157.3235 N.ar    1  UNL1       -0.1676
     12 N         143.5540  139.8418  157.8287 N.ar    1  UNL1       -0.2473
     13 C         144.3747  140.9039  157.1591 C.3     1  UNL1        0.1538
     14 C         142.8069  139.9887  159.1211 C.ar    1  UNL1        0.0968
     15 C         144.2443  138.8433  162.5201 C.3     1  UNL1        0.1096
     16 N         143.3905  137.7409  161.9672 N.pl3   1  UNL1       -0.3166
     17 H         143.8066  136.9041  161.6578 H       1  UNL1        0.1482
     18 C         138.8867  138.2673  165.4623 C.ar    1  UNL1        0.0730
     19 C         137.8689  138.1656  166.5595 C.ar    1  UNL1        0.1144
     20 N         138.0533  138.9445  167.8281 N.ar    1  UNL1       -0.2293
     21 C         139.2554  139.8252  167.9994 C.ar    1  UNL1        0.1831
     22 C         140.2732  139.9269  166.9023 C.ar    1  UNL1        0.1670
     23 C         140.0888  139.1479  165.6337 C.ar    1  UNL1        0.0554
     24 C         139.4398  140.6041  169.2680 C.1     1  UNL1        0.1229
     25 N         139.6242  141.3831  170.5366 N.1     1  UNL1       -0.1892
     26 O         141.4753  140.8076  167.0736 O.3     1  UNL1       -0.4755
     27 C         141.7256  141.9306  166.1113 C.3     1  UNL1        0.1817
     28 C         143.1079  142.1688  165.5798 C.3     1  UNL1        0.0464
     29 C         143.3582  143.2919  164.6174 C.3     1  UNL1        0.0208
     30 C         142.2262  144.1768  164.1867 C.3     1  UNL1        0.0688
     31 N         140.8439  143.9385  164.7182 N.3     1  UNL1       -0.2945
     32 C         140.5936  142.8155  165.6805 C.3     1  UNL1        0.1126
     33 H         140.2423  143.7743  163.9111 H       1  UNL1        0.1234
@<TRIPOS>BOND
     1    15    16    1
     2    16     3    1
     3     3     4   ar
     4     4     5   ar
     5     5     1    1
     6     1    18    1
     7    18    19   ar
     8    19    20   ar
     9    20    21   ar
    10    21    24    1
    11    24    25    3
    12    21    22   ar
    13    22    26    1
    14    27    26    1
    15    27    28    1
    16    28    29    1
    17    29    30    1
    18    30    31    1
    19    31    32    1
    20    22    23   ar
    21     5     6   ar
    22     6     7   ar
    23     7     8   ar
    24     8     9    1
    25     9    10   ar
    26    10    11   ar
    27    11    12   ar
    28    12    13    1
    29    12    14   ar
    30     8     3   ar
    31    14     9   ar
    32    23    18   ar
    33    32    27    1
    34    16    17    1
    35     1     2    1
    36    31    33    1
@<TRIPOS>MOLECULE
*****
 33 36 0 0 0
SMALL
GASTEIGER

@<TRIPOS>ATOM
      1 N         138.1634  139.4464  162.5487 N.pl3   1  UNL1       -0.2812
      2 H         137.2125  139.4930  162.2981 H       1  UNL1        0.1551
      3 C         139.4819  141.1510  165.8813 C.ar    1  UNL1        0.1330
      4 N         139.0735  140.9653  164.4500 N.ar    1  UNL1       -0.1988
      5 C         138.5718  139.6320  163.9801 C.ar    1  UNL1        0.2219
      6 N         138.4786  138.4845  164.9415 N.ar    1  UNL1       -0.2119
      7 C         138.8870  138.6702  166.3728 C.ar    1  UNL1        0.1047
      8 C         139.3886  140.0034  166.8427 C.ar    1  UNL1        0.0537
      9 C         139.7971  140.1891  168.2741 C.ar    1  UNL1        0.0438
     10 C         138.8710  140.2796  169.4506 C.ar    1  UNL1        0.1218
     11 N         139.7049  140.4633  170.6838 N.ar    1  UNL1       -0.1676
     12 N         141.1464  140.4863  170.2695 N.ar    1  UNL1       -0.2473
     13 C         142.3241  140.6501  171.1839 C.3     1  UNL1        0.1538
     14 C         141.2033  140.3169  168.7802 C.ar    1  UNL1        0.0968
     15 C         140.1628  143.6059  165.3715 C.3     1  UNL1        0.1096
     16 N         139.9836  142.4842  166.3511 N.pl3   1  UNL1       -0.3166
     17 H         140.1952  142.6231  167.3025 H       1  UNL1        0.1482
     18 C         139.2039  139.1896  161.4992 C.ar    1  UNL1        0.0730
     19 C         138.8370  139.2598  160.0464 C.ar    1  UNL1        0.1144
     20 N         139.8775  139.0031  158.9968 N.ar    1  UNL1       -0.2293
     21 C         141.2848  138.6762  159.4001 C.ar    1  UNL1        0.1831
     22 C         141.6516  138.6060  160.8528 C.ar    1  UNL1        0.1670
     23 C         140.6112  138.8627  161.9024 C.ar    1  UNL1        0.0554
     24 C         142.3253  138.4194  158.3506 C.1     1  UNL1        0.1229
     25 N         143.3658  138.1627  157.3011 N.1     1  UNL1       -0.1892
     26 O         143.0590  138.2791  161.2561 O.3     1  UNL1       -0.4755
     27 C         143.8733  139.2825  162.0177 C.3     1  UNL1        0.1817
     28 C         144.2281  139.0267  163.4524 C.3     1  UNL1        0.0464
     29 C         145.0424  140.0302  164.2141 C.3     1  UNL1        0.0208
     30 C         145.5019  141.2894  163.5408 C.3     1  UNL1        0.0688
     31 N         145.1470  141.5452  162.1060 N.3     1  UNL1       -0.2945
     32 C         144.3327  140.5418  161.3444 C.3     1  UNL1        0.1126
     33 H         146.0260  141.6557  161.6005 H       1  UNL1        0.1234
@<TRIPOS>BOND
     1    15    16    1
     2    16     3    1
     3     3     4   ar
     4     4     5   ar
     5     5     1    1
     6     1    18    1
     7    18    19   ar
     8    19    20   ar
     9    20    21   ar
    10    21    24    1
    11    24    25    3
    12    21    22   ar
    13    22    26    1
    14    27    26    1
    15    27    28    1
    16    28    29    1
    17    29    30    1
    18    30    31    1
    19    31    32    1
    20    22    23   ar
    21     5     6   ar
    22     6     7   ar
    23     7     8   ar
    24     8     9    1
    25     9    10   ar
    26    10    11   ar
    27    11    12   ar
    28    12    13    1
    29    12    14   ar
    30     8     3   ar
    31    14     9   ar
    32    23    18   ar
    33    32    27    1
    34    16    17    1
    35     1     2    1
    36    31    33    1
@<TRIPOS>MOLECULE
*****
 33 36 0 0 0
SMALL
GASTEIGER

@<TRIPOS>ATOM
      1 N         138.4327  138.6955  164.0250 N.pl3   1  UNL1       -0.2812
      2 H         138.0439  137.8089  163.8464 H       1  UNL1        0.1551
      3 C         138.2223  142.0084  161.8499 C.ar    1  UNL1        0.1330
      4 N         138.0232  141.0364  162.9749 N.ar    1  UNL1       -0.1988
      5 C         138.6318  139.6675  162.8999 C.ar    1  UNL1        0.2219
      6 N         139.4397  139.2706  161.7000 N.ar    1  UNL1       -0.2119
      7 C         139.6388  140.2426  160.5751 C.ar    1  UNL1        0.1047
      8 C         139.0301  141.6115  160.6500 C.ar    1  UNL1        0.0537
      9 C         139.2293  142.5835  159.5250 C.ar    1  UNL1        0.0438
     10 C         138.5912  142.5062  158.1697 C.ar    1  UNL1        0.1218
     11 N         139.0691  143.6784  157.3649 N.ar    1  UNL1       -0.1676
     12 N         140.0025  144.4801  158.2228 N.ar    1  UNL1       -0.2473
     13 C         140.7123  145.7376  157.8169 C.3     1  UNL1        0.1538
     14 C         140.1015  143.8034  159.5578 C.ar    1  UNL1        0.0968
     15 C         138.0557  144.3374  162.9891 C.3     1  UNL1        0.1096
     16 N         137.6136  143.3773  161.9249 N.pl3   1  UNL1       -0.3166
     17 H         136.9239  143.6456  161.2756 H       1  UNL1        0.1482
     18 C         138.8259  139.0746  165.4220 C.ar    1  UNL1        0.0730
     19 C         137.8768  138.8365  166.5590 C.ar    1  UNL1        0.1144
     20 N         138.2700  139.2155  167.9560 N.ar    1  UNL1       -0.2293
     21 C         139.6123  139.8326  168.2161 C.ar    1  UNL1        0.1831
     22 C         140.5613  140.0707  167.0791 C.ar    1  UNL1        0.1670
     23 C         140.1681  139.6916  165.6821 C.ar    1  UNL1        0.0554
     24 C         140.0055  140.2116  169.6131 C.1     1  UNL1        0.1229
     25 N         140.3987  140.5907  171.0102 N.1     1  UNL1       -0.1892
     26 O         141.9035  140.6878  167.3392 O.3     1  UNL1       -0.4755
     27 C         142.9529  140.6802  166.2674 C.3     1  UNL1        0.1817
     28 C         143.5284  139.3797  165.7905 C.3     1  UNL1        0.0464
     29 C         144.5777  139.3720  164.7186 C.3     1  UNL1        0.0208
     30 C         145.0515  140.6649  164.1237 C.3     1  UNL1        0.0688
     31 N         144.4760  141.9654  164.6006 N.3     1  UNL1       -0.2945
     32 C         143.4267  141.9730  165.6724 C.3     1  UNL1        0.1126
     33 H         144.0677  142.4232  163.7856 H       1  UNL1        0.1234
@<TRIPOS>BOND
     1    15    16    1
     2    16     3    1
     3     3     4   ar
     4     4     5   ar
     5     5     1    1
     6     1    18    1
     7    18    19   ar
     8    19    20   ar
     9    20    21   ar
    10    21    24    1
    11    24    25    3
    12    21    22   ar
    13    22    26    1
    14    27    26    1
    15    27    28    1
    16    28    29    1
    17    29    30    1
    18    30    31    1
    19    31    32    1
    20    22    23   ar
    21     5     6   ar
    22     6     7   ar
    23     7     8   ar
    24     8     9    1
    25     9    10   ar
    26    10    11   ar
    27    11    12   ar
    28    12    13    1
    29    12    14   ar
    30     8     3   ar
    31    14     9   ar
    32    23    18   ar
    33    32    27    1
    34    16    17    1
    35     1     2    1
    36    31    33    1
@<TRIPOS>MOLECULE
*****
 33 36 0 0 0
SMALL
GASTEIGER

@<TRIPOS>ATOM
      1 N         143.4060  138.3187  163.0041 N.pl3   1  UNL1       -0.2812
      2 H         144.1529  137.6774  163.0059 H       1  UNL1        0.1551
      3 C         143.0561  141.5438  165.2902 C.ar    1  UNL1        0.1330
      4 N         143.3023  140.6758  164.0920 N.ar    1  UNL1       -0.1988
      5 C         143.1597  139.1867  164.2025 C.ar    1  UNL1        0.2219
      6 N         142.7710  138.5656  165.5113 N.ar    1  UNL1       -0.2119
      7 C         142.5248  139.4336  166.7096 C.ar    1  UNL1        0.1047
      8 C         142.6674  140.9227  166.5990 C.ar    1  UNL1        0.0537
      9 C         142.4211  141.7907  167.7974 C.ar    1  UNL1        0.0438
     10 C         143.4327  142.1594  168.8418 C.ar    1  UNL1        0.1218
     11 N         142.7568  143.0390  169.8516 N.ar    1  UNL1       -0.1676
     12 N         141.3275  143.2139  169.4312 N.ar    1  UNL1       -0.2473
     13 C         140.2883  144.0189  170.1536 C.3     1  UNL1        0.1538
     14 C         141.1201  142.4425  168.1617 C.ar    1  UNL1        0.0968
     15 C         144.5503  143.6691  165.3156 C.3     1  UNL1        0.1096
     16 N         143.1987  143.0329  165.1797 N.pl3   1  UNL1       -0.3166
     17 H         142.4052  143.5928  165.0179 H       1  UNL1        0.1482
     18 C         142.5140  138.4278  161.8031 C.ar    1  UNL1        0.0730
     19 C         143.0653  138.1642  160.4331 C.ar    1  UNL1        0.1144
     20 N         142.1733  138.2733  159.2320 N.ar    1  UNL1       -0.2293
     21 C         140.7302  138.6460  159.4009 C.ar    1  UNL1        0.1831
     22 C         140.1790  138.9096  160.7708 C.ar    1  UNL1        0.1670
     23 C         141.0710  138.8005  161.9719 C.ar    1  UNL1        0.0554
     24 C         139.8383  138.7551  158.1999 C.1     1  UNL1        0.1229
     25 N         138.9463  138.8643  156.9988 N.1     1  UNL1       -0.1892
     26 O         138.7359  139.2824  160.9397 O.3     1  UNL1       -0.4755
     27 C         138.3687  140.6117  161.5296 C.3     1  UNL1        0.1817
     28 C         137.8696  140.6934  162.9418 C.3     1  UNL1        0.0464
     29 C         137.5023  142.0228  163.5317 C.3     1  UNL1        0.0208
     30 C         137.6343  143.2704  162.7095 C.3     1  UNL1        0.0688
     31 N         138.1335  143.1886  161.2973 N.3     1  UNL1       -0.2945
     32 C         138.5007  141.8593  160.7074 C.3     1  UNL1        0.1126
     33 H         138.9670  143.7742  161.2453 H       1  UNL1        0.1234
@<TRIPOS>BOND
     1    15    16    1
     2    16     3    1
     3     3     4   ar
     4     4     5   ar
     5     5     1    1
     6     1    18    1
     7    18    19   ar
     8    19    20   ar
     9    20    21   ar
    10    21    24    1
    11    24    25    3
    12    21    22   ar
    13    22    26    1
    14    27    26    1
    15    27    28    1
    16    28    29    1
    17    29    30    1
    18    30    31    1
    19    31    32    1
    20    22    23   ar
    21     5     6   ar
    22     6     7   ar
    23     7     8   ar
    24     8     9    1
    25     9    10   ar
    26    10    11   ar
    27    11    12   ar
    28    12    13    1
    29    12    14   ar
    30     8     3   ar
    31    14     9   ar
    32    23    18   ar
    33    32    27    1
    34    16    17    1
    35     1     2    1
    36    31    33    1
