@<TRIPOS>MOLECULE
*****
 32 36 0 0 0
SMALL
GASTEIGER

@<TRIPOS>ATOM
      1 C         140.2162  140.6205  165.1834 C.ar    1  UNL1        0.0889
      2 N         140.7290  140.0316  166.4641 N.ar    1  UNL1       -0.2427
      3 C         140.8324  141.1362  167.4736 C.ar    1  UNL1        0.0879
      4 S         140.3835  142.4078  166.8168 S.2     1  UNL1       -0.0693
      5 C         140.0027  142.0891  165.4014 C.ar    1  UNL1        0.0659
      6 F         139.1980  137.6274  160.0839 F       1  UNL1       -0.2042
      7 C         139.4526  138.3756  161.3588 C.ar    1  UNL1        0.1401
      8 C         140.5936  139.3455  161.4441 C.ar    1  UNL1        0.0297
      9 C         140.8482  140.0938  162.7190 C.ar    1  UNL1        0.0038
     10 C         139.9617  139.8722  163.9085 C.ar    1  UNL1        0.0183
     11 C         138.8206  138.9023  163.8232 C.ar    1  UNL1        0.0038
     12 C         138.5661  138.1540  162.5483 C.ar    1  UNL1        0.0297
     13 C         141.3022  140.9940  168.8910 C.3     1  UNL1        0.0493
     14 C         140.6077  141.7425  169.9899 C.3     1  UNL1        0.0236
     15 C         141.0775  141.6004  171.4073 C.3     1  UNL1        0.0690
     16 N         142.2417  140.7099  171.7258 N.3     1  UNL1       -0.2974
     17 C         142.9361  139.9614  170.6270 C.3     1  UNL1        0.0690
     18 C         142.4664  140.1035  169.2096 C.3     1  UNL1        0.0236
     19 H         141.9060  140.0127  172.3904 H       1  UNL1        0.1232
     20 C         139.4971  143.0673  164.3829 C.ar    1  UNL1        0.0932
     21 C         138.0212  143.2558  164.1919 C.ar    1  UNL1        0.0405
     22 C         137.5156  144.2340  163.1734 C.ar    1  UNL1        0.1034
     23 N         138.4858  145.0238  162.3457 N.ar    1  UNL1       -0.2120
     24 C         139.9616  144.8353  162.5366 C.ar    1  UNL1        0.2222
     25 N         140.4672  143.8571  163.5552 N.ar    1  UNL1       -0.2129
     26 N         140.9318  145.6250  161.7090 N.pl3   1  UNL1       -0.2614
     27 H         141.1762  146.5403  161.9767 H       1  UNL1        0.1570
     28 C         141.5296  145.0202  160.4734 C.ar    1  UNL1        0.1883
     29 N         142.7069  144.0918  160.4272 N.ar    1  UNL1       -0.1252
     30 N         142.9601  143.7353  158.9922 N.ar    1  UNL1       -0.1374
     31 C         141.9392  144.4435  158.1517 C.ar    1  UNL1        0.1605
     32 S         141.0552  145.2375  159.0671 S.2     1  UNL1       -0.0283
@<TRIPOS>BOND
     1     6     7    1
     2     7     8   ar
     3     8     9   ar
     4     9    10   ar
     5    10     1    1
     6     1     2   ar
     7     2     3   ar
     8     3    13    1
     9    13    14    1
    10    14    15    1
    11    15    16    1
    12    16    17    1
    13    17    18    1
    14     3     4   ar
    15     4     5   ar
    16     5    20    1
    17    20    21   ar
    18    21    22   ar
    19    22    23   ar
    20    23    24   ar
    21    24    26    1
    22    26    28    1
    23    28    29   ar
    24    29    30   ar
    25    30    31   ar
    26    31    32   ar
    27    24    25   ar
    28    10    11   ar
    29    11    12   ar
    30    12     7   ar
    31     5     1   ar
    32    25    20   ar
    33    18    13    1
    34    32    28   ar
    35    16    19    1
    36    26    27    1
@<TRIPOS>MOLECULE
*****
 32 36 0 0 0
SMALL
GASTEIGER

@<TRIPOS>ATOM
      1 C         140.3462  139.8066  164.7460 C.ar    1  UNL1        0.0889
      2 N         139.9706  139.9417  166.1919 N.ar    1  UNL1       -0.2427
      3 C         141.2350  139.9762  166.9981 C.ar    1  UNL1        0.0879
      4 S         142.3922  139.8624  166.0504 S.2     1  UNL1       -0.0693
      5 C         141.8428  139.7576  164.6586 C.ar    1  UNL1        0.0659
      6 F         136.5319  139.5136  160.1237 F       1  UNL1       -0.2042
      7 C         137.4855  139.5868  161.2793 C.ar    1  UNL1        0.1401
      8 C         137.8599  140.9184  161.8595 C.ar    1  UNL1        0.0297
      9 C         138.8134  140.9917  163.0151 C.ar    1  UNL1        0.0038
     10 C         139.3926  139.7333  163.5904 C.ar    1  UNL1        0.0183
     11 C         139.0182  138.4017  163.0102 C.ar    1  UNL1        0.0038
     12 C         138.0647  138.3285  161.8547 C.ar    1  UNL1        0.0297
     13 C         141.3263  140.1023  168.4900 C.3     1  UNL1        0.0493
     14 C         140.0753  140.1791  169.3141 C.3     1  UNL1        0.0236
     15 C         140.1666  140.3053  170.8060 C.3     1  UNL1        0.0690
     16 N         141.5088  140.3546  171.4737 N.3     1  UNL1       -0.2974
     17 C         142.7597  140.2778  170.6497 C.3     1  UNL1        0.0690
     18 C         142.6686  140.1517  169.1578 C.3     1  UNL1        0.0236
     19 H         141.5400  139.5743  172.1299 H       1  UNL1        0.1232
     20 C         142.6487  139.6267  163.4002 C.ar    1  UNL1        0.0932
     21 C         142.9500  138.2680  162.8404 C.ar    1  UNL1        0.0405
     22 C         143.7558  138.1372  161.5820 C.ar    1  UNL1        0.1034
     23 N         144.2605  139.3649  160.8835 N.ar    1  UNL1       -0.2120
     24 C         143.9592  140.7235  161.4433 C.ar    1  UNL1        0.2222
     25 N         143.1533  140.8544  162.7017 N.ar    1  UNL1       -0.2129
     26 N         144.4638  141.9513  160.7448 N.pl3   1  UNL1       -0.2614
     27 H         145.4317  142.0878  160.6269 H       1  UNL1        0.1570
     28 C         143.4938  142.9710  160.2258 C.ar    1  UNL1        0.1883
     29 N         142.8448  144.0592  161.0286 N.ar    1  UNL1       -0.1252
     30 N         141.9524  144.8423  160.1118 N.ar    1  UNL1       -0.1374
     31 C         142.0500  144.2380  158.7423 C.ar    1  UNL1        0.1605
     32 S         143.0027  143.0815  158.8128 S.2     1  UNL1       -0.0283
@<TRIPOS>BOND
     1     6     7    1
     2     7     8   ar
     3     8     9   ar
     4     9    10   ar
     5    10     1    1
     6     1     2   ar
     7     2     3   ar
     8     3    13    1
     9    13    14    1
    10    14    15    1
    11    15    16    1
    12    16    17    1
    13    17    18    1
    14     3     4   ar
    15     4     5   ar
    16     5    20    1
    17    20    21   ar
    18    21    22   ar
    19    22    23   ar
    20    23    24   ar
    21    24    26    1
    22    26    28    1
    23    28    29   ar
    24    29    30   ar
    25    30    31   ar
    26    31    32   ar
    27    24    25   ar
    28    10    11   ar
    29    11    12   ar
    30    12     7   ar
    31     5     1   ar
    32    25    20   ar
    33    18    13    1
    34    32    28   ar
    35    16    19    1
    36    26    27    1
@<TRIPOS>MOLECULE
*****
 32 36 0 0 0
SMALL
GASTEIGER

@<TRIPOS>ATOM
      1 C         142.1220  142.0040  164.9954 C.ar    1  UNL1        0.0889
      2 N         142.7153  141.7013  166.3395 N.ar    1  UNL1       -0.2427
      3 C         141.5942  141.6160  167.3325 C.ar    1  UNL1        0.0879
      4 S         140.3081  141.8658  166.6021 S.2     1  UNL1       -0.0693
      5 C         140.6343  142.1056  165.1578 C.ar    1  UNL1        0.0659
      6 F         145.1654  142.6878  159.8700 F       1  UNL1       -0.2042
      7 C         144.4046  142.5168  161.1514 C.ar    1  UNL1        0.1401
      8 C         144.1528  143.7004  162.0377 C.ar    1  UNL1        0.0297
      9 C         143.3919  143.5295  163.3191 C.ar    1  UNL1        0.0038
     10 C         142.8829  142.1749  163.7141 C.ar    1  UNL1        0.0183
     11 C         143.1347  140.9913  162.8277 C.ar    1  UNL1        0.0038
     12 C         143.8955  141.1623  161.5464 C.ar    1  UNL1        0.0297
     13 C         141.7347  141.3308  168.7984 C.3     1  UNL1        0.0493
     14 C         140.8992  142.0822  169.7920 C.3     1  UNL1        0.0236
     15 C         141.0397  141.7970  171.2579 C.3     1  UNL1        0.0690
     16 N         142.0156  140.7605  171.7302 N.3     1  UNL1       -0.2974
     17 C         142.8510  140.0091  170.7366 C.3     1  UNL1        0.0690
     18 C         142.7106  140.2942  169.2707 C.3     1  UNL1        0.0236
     19 H         141.4788  140.0654  172.2490 H       1  UNL1        0.1232
     20 C         139.6462  142.3961  164.0672 C.ar    1  UNL1        0.0932
     21 C         139.2751  143.8144  163.7496 C.ar    1  UNL1        0.0405
     22 C         138.2870  144.1048  162.6591 C.ar    1  UNL1        0.1034
     23 N         137.6700  142.9771  161.8861 N.ar    1  UNL1       -0.2120
     24 C         138.0411  141.5589  162.2037 C.ar    1  UNL1        0.2222
     25 N         139.0292  141.2684  163.2942 N.ar    1  UNL1       -0.2129
     26 N         137.4241  140.4311  161.4307 N.pl3   1  UNL1       -0.2614
     27 H         136.5699  140.0411  161.7263 H       1  UNL1        0.1570
     28 C         138.1088  139.8975  160.2074 C.ar    1  UNL1        0.1883
     29 N         137.7300  140.1916  158.7861 N.ar    1  UNL1       -0.1252
     30 N         138.6795  139.4519  157.8908 N.ar    1  UNL1       -0.1374
     31 C         139.6450  138.7007  158.7589 C.ar    1  UNL1        0.1605
     32 S         139.2923  138.9760  160.1906 S.2     1  UNL1       -0.0283
@<TRIPOS>BOND
     1     6     7    1
     2     7     8   ar
     3     8     9   ar
     4     9    10   ar
     5    10     1    1
     6     1     2   ar
     7     2     3   ar
     8     3    13    1
     9    13    14    1
    10    14    15    1
    11    15    16    1
    12    16    17    1
    13    17    18    1
    14     3     4   ar
    15     4     5   ar
    16     5    20    1
    17    20    21   ar
    18    21    22   ar
    19    22    23   ar
    20    23    24   ar
    21    24    26    1
    22    26    28    1
    23    28    29   ar
    24    29    30   ar
    25    30    31   ar
    26    31    32   ar
    27    24    25   ar
    28    10    11   ar
    29    11    12   ar
    30    12     7   ar
    31     5     1   ar
    32    25    20   ar
    33    18    13    1
    34    32    28   ar
    35    16    19    1
    36    26    27    1
@<TRIPOS>MOLECULE
*****
 32 36 0 0 0
SMALL
GASTEIGER

@<TRIPOS>ATOM
      1 C         140.3695  142.4360  165.3861 C.ar    1  UNL1        0.0889
      2 N         140.8090  142.6822  166.7990 N.ar    1  UNL1       -0.2427
      3 C         140.9378  141.3532  167.4826 C.ar    1  UNL1        0.0879
      4 S         140.5779  140.2857  166.4922 S.2     1  UNL1       -0.0693
      5 C         140.2266  140.9549  165.1965 C.ar    1  UNL1        0.0659
      6 F         139.3600  146.6380  161.2238 F       1  UNL1       -0.2042
      7 C         139.6124  145.5875  162.2644 C.ar    1  UNL1        0.1401
      8 C         141.0166  145.2736  162.6882 C.ar    1  UNL1        0.0297
      9 C         141.2690  144.2232  163.7287 C.ar    1  UNL1        0.0038
     10 C         140.1171  143.4865  164.3455 C.ar    1  UNL1        0.0183
     11 C         138.7129  143.8003  163.9218 C.ar    1  UNL1        0.0038
     12 C         138.4606  144.8508  162.8812 C.ar    1  UNL1        0.0297
     13 C         141.3536  141.1309  168.9066 C.3     1  UNL1        0.0493
     14 C         140.6493  141.8552  170.0153 C.3     1  UNL1        0.0236
     15 C         141.0651  141.6329  171.4393 C.3     1  UNL1        0.0690
     16 N         142.1850  140.6862  171.7545 N.3     1  UNL1       -0.2974
     17 C         142.8892  139.9618  170.6458 C.3     1  UNL1        0.0690
     18 C         142.4735  140.1841  169.2218 C.3     1  UNL1        0.0236
     19 H         141.8019  139.9733  172.3753 H       1  UNL1        0.1232
     20 C         139.8063  140.2643  163.9331 C.ar    1  UNL1        0.0932
     21 C         138.3582  140.2298  163.5432 C.ar    1  UNL1        0.0405
     22 C         137.9379  139.5391  162.2798 C.ar    1  UNL1        0.1034
     23 N         138.9656  138.8829  161.4062 N.ar    1  UNL1       -0.2120
     24 C         140.4136  138.9174  161.7960 C.ar    1  UNL1        0.2222
     25 N         140.8339  139.6081  163.0595 N.ar    1  UNL1       -0.2129
     26 N         141.4413  138.2612  160.9224 N.pl3   1  UNL1       -0.2614
     27 H         141.5908  137.2900  160.9825 H       1  UNL1        0.1570
     28 C         142.2414  139.0848  159.9572 C.ar    1  UNL1        0.1883
     29 N         143.6374  138.7913  159.4937 N.ar    1  UNL1       -0.1252
     30 N         144.0447  139.8716  158.5360 N.ar    1  UNL1       -0.1374
     31 C         142.9002  140.8328  158.4076 C.ar    1  UNL1        0.1605
     32 S         141.7857  140.3465  159.2860 S.2     1  UNL1       -0.0283
@<TRIPOS>BOND
     1     6     7    1
     2     7     8   ar
     3     8     9   ar
     4     9    10   ar
     5    10     1    1
     6     1     2   ar
     7     2     3   ar
     8     3    13    1
     9    13    14    1
    10    14    15    1
    11    15    16    1
    12    16    17    1
    13    17    18    1
    14     3     4   ar
    15     4     5   ar
    16     5    20    1
    17    20    21   ar
    18    21    22   ar
    19    22    23   ar
    20    23    24   ar
    21    24    26    1
    22    26    28    1
    23    28    29   ar
    24    29    30   ar
    25    30    31   ar
    26    31    32   ar
    27    24    25   ar
    28    10    11   ar
    29    11    12   ar
    30    12     7   ar
    31     5     1   ar
    32    25    20   ar
    33    18    13    1
    34    32    28   ar
    35    16    19    1
    36    26    27    1
@<TRIPOS>MOLECULE
*****
 32 36 0 0 0
SMALL
GASTEIGER

@<TRIPOS>ATOM
      1 C         142.1943  140.2529  165.0886 C.ar    1  UNL1        0.0889
      2 N         141.8163  139.7352  166.4447 N.ar    1  UNL1       -0.2427
      3 C         141.7415  140.9035  167.3826 C.ar    1  UNL1        0.0879
      4 S         142.0732  142.1432  166.6061 S.2     1  UNL1       -0.0693
      5 C         142.3531  141.7411  165.1883 C.ar    1  UNL1        0.0659
      6 F         142.9403  136.9506  160.1349 F       1  UNL1       -0.2042
      7 C         142.7538  137.7762  161.3733 C.ar    1  UNL1        0.1401
      8 C         143.9454  138.3644  162.0690 C.ar    1  UNL1        0.0297
      9 C         143.7589  139.1900  163.3075 C.ar    1  UNL1        0.0038
     10 C         142.3808  139.4273  163.8502 C.ar    1  UNL1        0.0183
     11 C         141.1893  138.8391  163.1545 C.ar    1  UNL1        0.0038
     12 C         141.3757  138.0135  161.9160 C.ar    1  UNL1        0.0297
     13 C         141.3956  140.8426  168.8409 C.3     1  UNL1        0.0493
     14 C         142.1872  141.6416  169.8333 C.3     1  UNL1        0.0236
     15 C         141.8413  141.5807  171.2916 C.3     1  UNL1        0.0690
     16 N         140.7039  140.7210  171.7574 N.3     1  UNL1       -0.2974
     17 C         139.9123  139.9221  170.7649 C.3     1  UNL1        0.0690
     18 C         140.2581  139.9828  169.3067 C.3     1  UNL1        0.0236
     19 H         140.0443  141.3372  172.2324 H       1  UNL1        0.1232
     20 C         142.7263  142.6651  164.0671 C.ar    1  UNL1        0.0932
     21 C         144.1678  142.9954  163.8156 C.ar    1  UNL1        0.0405
     22 C         144.5409  143.9194  162.6945 C.ar    1  UNL1        0.1034
     23 N         143.4727  144.5131  161.8248 N.ar    1  UNL1       -0.2120
     24 C         142.0313  144.1828  162.0763 C.ar    1  UNL1        0.2222
     25 N         141.6581  143.2588  163.1974 N.ar    1  UNL1       -0.2129
     26 N         140.9630  144.7765  161.2066 N.pl3   1  UNL1       -0.2614
     27 H         141.0058  145.7271  160.9540 H       1  UNL1        0.1570
     28 C         139.8296  143.9219  160.7217 C.ar    1  UNL1        0.1883
     29 N         138.5528  143.6488  161.4601 N.ar    1  UNL1       -0.1252
     30 N         137.7081  142.7484  160.6081 N.ar    1  UNL1       -0.1374
     31 C         138.4630  142.4650  159.3432 C.ar    1  UNL1        0.1605
     32 S         139.7741  143.1903  159.4134 S.2     1  UNL1       -0.0283
@<TRIPOS>BOND
     1     6     7    1
     2     7     8   ar
     3     8     9   ar
     4     9    10   ar
     5    10     1    1
     6     1     2   ar
     7     2     3   ar
     8     3    13    1
     9    13    14    1
    10    14    15    1
    11    15    16    1
    12    16    17    1
    13    17    18    1
    14     3     4   ar
    15     4     5   ar
    16     5    20    1
    17    20    21   ar
    18    21    22   ar
    19    22    23   ar
    20    23    24   ar
    21    24    26    1
    22    26    28    1
    23    28    29   ar
    24    29    30   ar
    25    30    31   ar
    26    31    32   ar
    27    24    25   ar
    28    10    11   ar
    29    11    12   ar
    30    12     7   ar
    31     5     1   ar
    32    25    20   ar
    33    18    13    1
    34    32    28   ar
    35    16    19    1
    36    26    27    1
@<TRIPOS>MOLECULE
*****
 32 36 0 0 0
SMALL
GASTEIGER

@<TRIPOS>ATOM
      1 C         142.1842  141.3452  165.2187 C.ar    1  UNL1        0.0889
      2 N         142.2248  141.9935  166.5708 N.ar    1  UNL1       -0.2427
      3 C         141.2322  141.2930  167.4507 C.ar    1  UNL1        0.0879
      4 S         140.5782  140.2118  166.6424 S.2     1  UNL1       -0.0693
      5 C         141.1666  140.2441  165.2630 C.ar    1  UNL1        0.0659
      6 F         145.5088  142.8861  160.4676 F       1  UNL1       -0.2042
      7 C         144.6776  142.5009  161.6554 C.ar    1  UNL1        0.1401
      8 C         145.2974  141.7392  162.7892 C.ar    1  UNL1        0.0297
      9 C         144.4663  141.3540  163.9770 C.ar    1  UNL1        0.0038
     10 C         143.0154  141.7305  164.0309 C.ar    1  UNL1        0.0183
     11 C         142.3955  142.4922  162.8971 C.ar    1  UNL1        0.0038
     12 C         143.2267  142.8774  161.7093 C.ar    1  UNL1        0.0297
     13 C         140.9442  141.6169  168.8867 C.3     1  UNL1        0.0493
     14 C         140.3110  142.9279  169.2474 C.3     1  UNL1        0.0236
     15 C         140.0230  143.2518  170.6834 C.3     1  UNL1        0.0690
     16 N         140.3683  142.2647  171.7587 N.3     1  UNL1       -0.2974
     17 C         141.0016  140.9537  171.3980 C.3     1  UNL1        0.0690
     18 C         141.2896  140.6297  169.9620 C.3     1  UNL1        0.0236
     19 H         139.5005  142.0475  172.2487 H       1  UNL1        0.1232
     20 C         140.8014  139.3349  164.1272 C.ar    1  UNL1        0.0932
     21 C         139.3673  138.9589  163.8987 C.ar    1  UNL1        0.0405
     22 C         139.0021  138.0497  162.7630 C.ar    1  UNL1        0.1034
     23 N         140.0709  137.5164  161.8557 N.ar    1  UNL1       -0.2120
     24 C         141.5049  137.8924  162.0842 C.ar    1  UNL1        0.2222
     25 N         141.8701  138.8016  163.2199 N.ar    1  UNL1       -0.2129
     26 N         142.5738  137.3591  161.1769 N.pl3   1  UNL1       -0.2614
     27 H         143.0496  136.5296  161.4111 H       1  UNL1        0.1570
     28 C         142.9177  138.0895  159.9127 C.ar    1  UNL1        0.1883
     29 N         142.9561  137.4976  158.5350 N.ar    1  UNL1       -0.1252
     30 N         143.3457  138.5824  157.5750 N.ar    1  UNL1       -0.1374
     31 C         143.5481  139.8448  158.3596 C.ar    1  UNL1        0.1605
     32 S         143.2836  139.5402  159.8043 S.2     1  UNL1       -0.0283
@<TRIPOS>BOND
     1     6     7    1
     2     7     8   ar
     3     8     9   ar
     4     9    10   ar
     5    10     1    1
     6     1     2   ar
     7     2     3   ar
     8     3    13    1
     9    13    14    1
    10    14    15    1
    11    15    16    1
    12    16    17    1
    13    17    18    1
    14     3     4   ar
    15     4     5   ar
    16     5    20    1
    17    20    21   ar
    18    21    22   ar
    19    22    23   ar
    20    23    24   ar
    21    24    26    1
    22    26    28    1
    23    28    29   ar
    24    29    30   ar
    25    30    31   ar
    26    31    32   ar
    27    24    25   ar
    28    10    11   ar
    29    11    12   ar
    30    12     7   ar
    31     5     1   ar
    32    25    20   ar
    33    18    13    1
    34    32    28   ar
    35    16    19    1
    36    26    27    1
@<TRIPOS>MOLECULE
*****
 32 36 0 0 0
SMALL
GASTEIGER

@<TRIPOS>ATOM
      1 C         140.9065  142.8157  165.3747 C.ar    1  UNL1        0.0889
      2 N         140.5266  142.8670  166.8249 N.ar    1  UNL1       -0.2427
      3 C         141.1555  141.6905  167.5107 C.ar    1  UNL1        0.0879
      4 S         141.9239  140.9120  166.4844 S.2     1  UNL1       -0.0693
      5 C         141.7701  141.6074  165.1643 C.ar    1  UNL1        0.0659
      6 F         139.2606  146.7521  161.1562 F       1  UNL1       -0.2042
      7 C         139.6721  145.7680  162.2109 C.ar    1  UNL1        0.1401
      8 C         141.1038  145.6966  162.6523 C.ar    1  UNL1        0.0297
      9 C         141.5153  144.7124  163.7069 C.ar    1  UNL1        0.0038
     10 C         140.4950  143.7998  164.3201 C.ar    1  UNL1        0.0183
     11 C         139.0633  143.8712  163.8786 C.ar    1  UNL1        0.0038
     12 C         138.6518  144.8553  162.8240 C.ar    1  UNL1        0.0297
     13 C         141.0366  141.3519  168.9672 C.3     1  UNL1        0.0493
     14 C         140.1101  140.2585  169.4098 C.3     1  UNL1        0.0236
     15 C         139.9913  139.9200  170.8662 C.3     1  UNL1        0.0690
     16 N         140.7989  140.6748  171.8800 N.3     1  UNL1       -0.2974
     17 C         141.7254  141.7682  171.4374 C.3     1  UNL1        0.0690
     18 C         141.8443  142.1068  169.9810 C.3     1  UNL1        0.0236
     19 H         141.3689  139.9876  172.3733 H       1  UNL1        0.1232
     20 C         142.3738  141.1710  163.8623 C.ar    1  UNL1        0.0932
     21 C         143.8317  141.4037  163.5962 C.ar    1  UNL1        0.0405
     22 C         144.4354  140.9674  162.2943 C.ar    1  UNL1        0.1034
     23 N         143.5814  140.2984  161.2583 N.ar    1  UNL1       -0.2120
     24 C         142.1236  140.0658  161.5244 C.ar    1  UNL1        0.2222
     25 N         141.5199  140.5021  162.8264 N.ar    1  UNL1       -0.2129
     26 N         141.2696  139.3969  160.4885 N.pl3   1  UNL1       -0.2614
     27 H         141.6793  139.0441  159.6657 H       1  UNL1        0.1570
     28 C         139.7913  139.2653  160.7061 C.ar    1  UNL1        0.1883
     29 N         138.7346  140.1768  160.1561 N.ar    1  UNL1       -0.1252
     30 N         137.4003  139.6740  160.6221 N.ar    1  UNL1       -0.1374
     31 C         137.6326  138.4517  161.4601 C.ar    1  UNL1        0.1605
     32 S         139.1102  138.1992  161.5120 S.2     1  UNL1       -0.0283
@<TRIPOS>BOND
     1     6     7    1
     2     7     8   ar
     3     8     9   ar
     4     9    10   ar
     5    10     1    1
     6     1     2   ar
     7     2     3   ar
     8     3    13    1
     9    13    14    1
    10    14    15    1
    11    15    16    1
    12    16    17    1
    13    17    18    1
    14     3     4   ar
    15     4     5   ar
    16     5    20    1
    17    20    21   ar
    18    21    22   ar
    19    22    23   ar
    20    23    24   ar
    21    24    26    1
    22    26    28    1
    23    28    29   ar
    24    29    30   ar
    25    30    31   ar
    26    31    32   ar
    27    24    25   ar
    28    10    11   ar
    29    11    12   ar
    30    12     7   ar
    31     5     1   ar
    32    25    20   ar
    33    18    13    1
    34    32    28   ar
    35    16    19    1
    36    26    27    1
@<TRIPOS>MOLECULE
*****
 32 36 0 0 0
SMALL
GASTEIGER

@<TRIPOS>ATOM
      1 C         143.9182  140.5623  159.2963 C.ar    1  UNL1        0.0889
      2 N         144.4193  140.2069  157.9279 N.ar    1  UNL1       -0.2427
      3 C         145.0915  141.4176  157.3514 C.ar    1  UNL1        0.0879
      4 S         145.0058  142.5213  158.3635 S.2     1  UNL1       -0.0693
      5 C         144.2807  141.9927  159.5655 C.ar    1  UNL1        0.0659
      6 F         140.9798  136.9048  163.0364 F       1  UNL1       -0.2042
      7 C         141.7144  137.8191  162.1014 C.ar    1  UNL1        0.1401
      8 C         140.9770  138.5053  160.9899 C.ar    1  UNL1        0.0297
      9 C         141.7116  139.4197  160.0549 C.ar    1  UNL1        0.0038
     10 C         143.1836  139.6479  160.2314 C.ar    1  UNL1        0.0183
     11 C         143.9210  138.9618  161.3428 C.ar    1  UNL1        0.0038
     12 C         143.1864  138.0474  162.2779 C.ar    1  UNL1        0.0297
     13 C         145.7361  141.5085  156.0001 C.3     1  UNL1        0.0493
     14 C         145.1403  140.7767  154.8341 C.3     1  UNL1        0.0236
     15 C         145.7849  140.8677  153.4828 C.3     1  UNL1        0.0690
     16 N         147.0253  141.6904  153.2974 N.3     1  UNL1       -0.2974
     17 C         147.6212  142.4222  154.4633 C.3     1  UNL1        0.0690
     18 C         146.9766  142.3313  155.8147 C.3     1  UNL1        0.0236
     19 H         146.8104  142.3915  152.5884 H       1  UNL1        0.1232
     20 C         143.9722  142.7599  160.8171 C.ar    1  UNL1        0.0932
     21 C         144.8083  142.5577  162.0460 C.ar    1  UNL1        0.0405
     22 C         144.4998  143.3249  163.2975 C.ar    1  UNL1        0.1034
     23 N         143.3554  144.2943  163.3201 N.ar    1  UNL1       -0.2120
     24 C         142.5194  144.4965  162.0912 C.ar    1  UNL1        0.2222
     25 N         142.8279  143.7293  160.8397 N.ar    1  UNL1       -0.2129
     26 N         141.3750  145.4659  162.1138 N.pl3   1  UNL1       -0.2614
     27 H         141.5047  146.3881  161.7944 H       1  UNL1        0.1570
     28 C         140.0330  145.0303  162.6230 C.ar    1  UNL1        0.1883
     29 N         138.8070  144.7983  161.7906 N.ar    1  UNL1       -0.1252
     30 N         137.6976  144.3748  162.7072 N.ar    1  UNL1       -0.1374
     31 C         138.2382  144.3451  164.1061 C.ar    1  UNL1        0.1605
     32 S         139.6815  144.7502  164.0541 S.2     1  UNL1       -0.0283
@<TRIPOS>BOND
     1     6     7    1
     2     7     8   ar
     3     8     9   ar
     4     9    10   ar
     5    10     1    1
     6     1     2   ar
     7     2     3   ar
     8     3    13    1
     9    13    14    1
    10    14    15    1
    11    15    16    1
    12    16    17    1
    13    17    18    1
    14     3     4   ar
    15     4     5   ar
    16     5    20    1
    17    20    21   ar
    18    21    22   ar
    19    22    23   ar
    20    23    24   ar
    21    24    26    1
    22    26    28    1
    23    28    29   ar
    24    29    30   ar
    25    30    31   ar
    26    31    32   ar
    27    24    25   ar
    28    10    11   ar
    29    11    12   ar
    30    12     7   ar
    31     5     1   ar
    32    25    20   ar
    33    18    13    1
    34    32    28   ar
    35    16    19    1
    36    26    27    1
@<TRIPOS>MOLECULE
*****
 32 36 0 0 0
SMALL
GASTEIGER

@<TRIPOS>ATOM
      1 C         142.9591  139.4419  160.7439 C.ar    1  UNL1        0.0889
      2 N         143.6181  139.1502  159.4283 N.ar    1  UNL1       -0.2427
      3 C         142.7077  138.2539  158.6424 C.ar    1  UNL1        0.0879
      4 S         141.4859  137.9916  159.4722 S.2     1  UNL1       -0.0693
      5 C         141.6414  138.7258  160.7709 C.ar    1  UNL1        0.0659
      6 F         145.2006  142.8707  165.1278 F       1  UNL1       -0.2042
      7 C         144.6402  142.0135  164.0318 C.ar    1  UNL1        0.1401
      8 C         143.7406  142.6162  162.9939 C.ar    1  UNL1        0.0297
      9 C         143.1802  141.7590  161.8979 C.ar    1  UNL1        0.0038
     10 C         143.5195  140.2991  161.8398 C.ar    1  UNL1        0.0183
     11 C         144.4191  139.6964  162.8778 C.ar    1  UNL1        0.0038
     12 C         144.9795  140.5536  163.9737 C.ar    1  UNL1        0.0297
     13 C         142.9725  137.7146  157.2680 C.3     1  UNL1        0.0493
     14 C         143.2455  138.6561  156.1327 C.3     1  UNL1        0.0236
     15 C         143.5104  138.1167  154.7583 C.3     1  UNL1        0.0690
     16 N         143.5021  136.6360  154.5192 N.3     1  UNL1       -0.2974
     17 C         143.2291  135.6945  155.6545 C.3     1  UNL1        0.0690
     18 C         142.9643  136.2337  157.0289 C.3     1  UNL1        0.0236
     19 H         144.4209  136.3924  154.1491 H       1  UNL1        0.1232
     20 C         140.6526  138.7413  161.8988 C.ar    1  UNL1        0.0932
     21 C         140.8096  137.7889  163.0471 C.ar    1  UNL1        0.0405
     22 C         139.8208  137.8043  164.1749 C.ar    1  UNL1        0.1034
     23 N         138.6750  138.7721  164.1545 N.ar    1  UNL1       -0.2120
     24 C         138.5179  139.7244  163.0063 C.ar    1  UNL1        0.2222
     25 N         139.5067  139.7090  161.8785 N.ar    1  UNL1       -0.2129
     26 N         137.3721  140.6922  162.9860 N.pl3   1  UNL1       -0.2614
     27 H         136.4476  140.3593  162.9241 H       1  UNL1        0.1570
     28 C         137.6347  142.1672  163.0599 C.ar    1  UNL1        0.1883
     29 N         137.6608  143.1173  161.8995 N.ar    1  UNL1       -0.1252
     30 N         137.9596  144.4884  162.4297 N.ar    1  UNL1       -0.1374
     31 C         138.1181  144.3855  163.9178 C.ar    1  UNL1        0.1605
     32 S         137.9173  142.9509  164.3073 S.2     1  UNL1       -0.0283
@<TRIPOS>BOND
     1     6     7    1
     2     7     8   ar
     3     8     9   ar
     4     9    10   ar
     5    10     1    1
     6     1     2   ar
     7     2     3   ar
     8     3    13    1
     9    13    14    1
    10    14    15    1
    11    15    16    1
    12    16    17    1
    13    17    18    1
    14     3     4   ar
    15     4     5   ar
    16     5    20    1
    17    20    21   ar
    18    21    22   ar
    19    22    23   ar
    20    23    24   ar
    21    24    26    1
    22    26    28    1
    23    28    29   ar
    24    29    30   ar
    25    30    31   ar
    26    31    32   ar
    27    24    25   ar
    28    10    11   ar
    29    11    12   ar
    30    12     7   ar
    31     5     1   ar
    32    25    20   ar
    33    18    13    1
    34    32    28   ar
    35    16    19    1
    36    26    27    1
