@<TRIPOS>MOLECULE
*****
 27 29 0 0 0
SMALL
GASTEIGER

@<TRIPOS>ATOM
      1 C         139.8985  140.4544  167.9166 C.3     1  UNL1        0.1467
      2 C         141.1586  140.4322  168.7299 C.3     1  UNL1        0.0489
      3 C         140.1456  140.5971  169.8237 C.3     1  UNL1        0.0236
      4 C         140.5925  140.6852  171.2528 C.3     1  UNL1        0.0690
      5 N         142.0525  140.6084  171.5882 N.3     1  UNL1       -0.2974
      6 C         143.0656  140.4435  170.4944 C.3     1  UNL1        0.0690
      7 C         142.6187  140.3554  169.0652 C.3     1  UNL1        0.0236
      8 H         142.1684  139.8152  172.2189 H       1  UNL1        0.1232
      9 C         141.7341  140.2750  167.3536 C.ar    1  UNL1       -0.0204
     10 C         141.4053  141.2746  166.2846 C.ar    1  UNL1       -0.0042
     11 C         141.9808  141.1174  164.9083 C.ar    1  UNL1       -0.0003
     12 C         142.8849  139.9607  164.6010 C.ar    1  UNL1       -0.0000
     13 C         143.2137  138.9611  165.6701 C.ar    1  UNL1       -0.0003
     14 C         142.6382  139.1183  167.0463 C.ar    1  UNL1       -0.0042
     15 O         138.8059  139.4662  168.1992 O.3     1  UNL1       -0.3470
     16 C         138.0425  138.8476  167.0658 C.3     1  UNL1        0.1875
     17 C         138.5707  140.3458  163.4290 C.ar    1  UNL1        0.1531
     18 C         139.5055  139.3325  162.8380 C.ar    1  UNL1        0.0345
     19 C         139.9527  138.1576  163.6563 C.ar    1  UNL1        0.0604
     20 CL        140.8876  137.1443  163.0653 Cl      1  UNL1       -0.0822
     21 C         139.4651  137.9960  165.0655 C.ar    1  UNL1        0.0286
     22 C         138.5302  139.0092  165.6565 C.ar    1  UNL1        0.0895
     23 N         138.0830  140.1842  164.8382 N.ar    1  UNL1       -0.2431
     24 F         137.6763  142.6956  161.7924 F       1  UNL1       -0.1644
     25 C         138.1235  141.5207  162.6107 C.3     1  UNL1        0.4349
     26 F         139.5003  141.6383  162.0271 F       1  UNL1       -0.1644
     27 F         136.7467  141.4032  163.1943 F       1  UNL1       -0.1644
@<TRIPOS>BOND
     1    24    25    1
     2    25    26    1
     3    25    27    1
     4    25    17    1
     5    17    18   ar
     6    18    19   ar
     7    19    20    1
     8    19    21   ar
     9    21    22   ar
    10    22    16    1
    11    16    15    1
    12    15     1    1
    13     1     2    1
    14     2     9    1
    15     9    10   ar
    16    10    11   ar
    17    11    12   ar
    18    12    13   ar
    19    13    14   ar
    20     2     3    1
    21     3     4    1
    22     4     5    1
    23     5     6    1
    24     6     7    1
    25    22    23   ar
    26    23    17   ar
    27     7     2    1
    28    14     9   ar
    29     5     8    1
@<TRIPOS>MOLECULE
*****
 27 29 0 0 0
SMALL
GASTEIGER

@<TRIPOS>ATOM
      1 C         139.0741  140.8227  162.7883 C.3     1  UNL1        0.1467
      2 C         138.8245  140.2138  164.1362 C.3     1  UNL1        0.0489
      3 C         138.9488  138.9698  163.3073 C.3     1  UNL1        0.0236
      4 C         138.8104  137.6223  163.9516 C.3     1  UNL1        0.0690
      5 N         138.5477  137.5188  165.4248 N.3     1  UNL1       -0.2974
      6 C         138.4234  138.7627  166.2537 C.3     1  UNL1        0.0690
      7 C         138.5618  140.1102  165.6094 C.3     1  UNL1        0.0236
      8 H         139.3134  136.9750  165.8229 H       1  UNL1        0.1232
      9 C         138.7869  141.6693  164.4970 C.ar    1  UNL1       -0.0204
     10 C         139.7852  142.2274  165.4675 C.ar    1  UNL1       -0.0042
     11 C         139.7476  143.6829  165.8283 C.ar    1  UNL1       -0.0003
     12 C         138.7117  144.5802  165.2186 C.ar    1  UNL1       -0.0000
     13 C         137.7134  144.0220  164.2480 C.ar    1  UNL1       -0.0003
     14 C         137.7511  142.5666  163.8873 C.ar    1  UNL1       -0.0042
     15 O         140.2036  140.3230  161.9370 O.3     1  UNL1       -0.3470
     16 C         141.1872  141.2923  161.3514 C.3     1  UNL1        0.1875
     17 C         142.8126  144.0048  163.7494 C.ar    1  UNL1        0.1531
     18 C         141.9857  145.2107  163.4150 C.ar    1  UNL1        0.0345
     19 C         140.8925  145.1105  162.3928 C.ar    1  UNL1        0.0604
     20 CL        140.0655  146.3165  162.0584 Cl      1  UNL1       -0.0822
     21 C         140.6264  143.8044  161.7049 C.ar    1  UNL1        0.0286
     22 C         141.4533  142.5985  162.0393 C.ar    1  UNL1        0.0895
     23 N         142.5465  142.6987  163.0615 N.ar    1  UNL1       -0.2431
     24 F         144.9989  144.2052  165.7940 F       1  UNL1       -0.1644
     25 C         143.9057  144.1050  164.7717 C.3     1  UNL1        0.4349
     26 F         144.0020  145.5813  164.5241 F       1  UNL1       -0.1644
     27 F         143.8095  142.6287  165.0193 F       1  UNL1       -0.1644
@<TRIPOS>BOND
     1    24    25    1
     2    25    26    1
     3    25    27    1
     4    25    17    1
     5    17    18   ar
     6    18    19   ar
     7    19    20    1
     8    19    21   ar
     9    21    22   ar
    10    22    16    1
    11    16    15    1
    12    15     1    1
    13     1     2    1
    14     2     9    1
    15     9    10   ar
    16    10    11   ar
    17    11    12   ar
    18    12    13   ar
    19    13    14   ar
    20     2     3    1
    21     3     4    1
    22     4     5    1
    23     5     6    1
    24     6     7    1
    25    22    23   ar
    26    23    17   ar
    27     7     2    1
    28    14     9   ar
    29     5     8    1
@<TRIPOS>MOLECULE
*****
 27 29 0 0 0
SMALL
GASTEIGER

@<TRIPOS>ATOM
      1 C         142.2271  139.9336  167.4787 C.3     1  UNL1        0.1467
      2 C         141.2807  140.2488  168.5990 C.3     1  UNL1        0.0489
      3 C         142.5630  140.1277  169.3676 C.3     1  UNL1        0.0236
      4 C         142.5678  140.3259  170.8544 C.3     1  UNL1        0.0690
      5 N         141.2902  140.6450  171.5726 N.3     1  UNL1       -0.2974
      6 C         140.0078  140.7661  170.8040 C.3     1  UNL1        0.0690
      7 C         140.0030  140.5680  169.3172 C.3     1  UNL1        0.0236
      8 H         141.4341  141.5362  172.0475 H       1  UNL1        0.1232
      9 C         140.3269  140.2604  167.4412 C.ar    1  UNL1       -0.0204
     10 C         140.6242  141.0981  166.2330 C.ar    1  UNL1       -0.0042
     11 C         139.6705  141.1097  165.0753 C.ar    1  UNL1       -0.0003
     12 C         138.4195  140.2836  165.1258 C.ar    1  UNL1       -0.0000
     13 C         138.1222  139.4458  166.3341 C.ar    1  UNL1       -0.0003
     14 C         139.0760  139.4343  167.4917 C.ar    1  UNL1       -0.0042
     15 O         143.2004  138.8005  167.6155 O.3     1  UNL1       -0.3470
     16 C         143.8243  138.1960  166.3927 C.3     1  UNL1        0.1875
     17 C         141.1919  138.1379  163.4233 C.ar    1  UNL1        0.1531
     18 C         141.9566  138.8580  162.3525 C.ar    1  UNL1        0.0345
     19 C         143.3439  139.3573  162.6284 C.ar    1  UNL1        0.0604
     20 CL        144.1086  140.0774  161.5574 Cl      1  UNL1       -0.0822
     21 C         143.9664  139.1367  163.9751 C.ar    1  UNL1        0.0286
     22 C         143.2017  138.4167  165.0459 C.ar    1  UNL1        0.0895
     23 N         141.8145  137.9173  164.7700 N.ar    1  UNL1       -0.2431
     24 F         138.4173  137.1392  162.8716 F       1  UNL1       -0.1644
     25 C         139.8046  137.6386  163.1475 C.3     1  UNL1        0.4349
     26 F         139.9432  138.0474  161.7109 F       1  UNL1       -0.1644
     27 F         139.6661  137.2298  164.5840 F       1  UNL1       -0.1644
@<TRIPOS>BOND
     1    24    25    1
     2    25    26    1
     3    25    27    1
     4    25    17    1
     5    17    18   ar
     6    18    19   ar
     7    19    20    1
     8    19    21   ar
     9    21    22   ar
    10    22    16    1
    11    16    15    1
    12    15     1    1
    13     1     2    1
    14     2     9    1
    15     9    10   ar
    16    10    11   ar
    17    11    12   ar
    18    12    13   ar
    19    13    14   ar
    20     2     3    1
    21     3     4    1
    22     4     5    1
    23     5     6    1
    24     6     7    1
    25    22    23   ar
    26    23    17   ar
    27     7     2    1
    28    14     9   ar
    29     5     8    1
@<TRIPOS>MOLECULE
*****
 27 29 0 0 0
SMALL
GASTEIGER

@<TRIPOS>ATOM
      1 C         138.7461  140.1113  163.4232 C.3     1  UNL1        0.1467
      2 C         138.4679  141.5403  163.7843 C.3     1  UNL1        0.0489
      3 C         138.2698  141.6037  162.2989 C.3     1  UNL1        0.0236
      4 C         137.8959  142.9018  161.6468 C.3     1  UNL1        0.0690
      5 N         137.7200  144.1364  162.4803 N.3     1  UNL1       -0.2974
      6 C         137.9180  144.0730  163.9658 C.3     1  UNL1        0.0690
      7 C         138.2920  142.7749  164.6178 C.3     1  UNL1        0.0236
      8 H         136.7667  144.4638  162.3241 H       1  UNL1        0.1232
      9 C         138.7626  140.9805  165.1445 C.ar    1  UNL1       -0.0204
     10 C         138.1963  139.6512  165.5472 C.ar    1  UNL1       -0.0042
     11 C         138.4910  139.0914  166.9073 C.ar    1  UNL1       -0.0003
     12 C         139.3519  139.8610  167.8646 C.ar    1  UNL1       -0.0000
     13 C         139.9182  141.1904  167.4619 C.ar    1  UNL1       -0.0003
     14 C         139.6234  141.7501  166.1018 C.ar    1  UNL1       -0.0042
     15 O         139.6976  139.7909  162.3086 O.3     1  UNL1       -0.3470
     16 C         141.0851  139.3143  162.6207 C.3     1  UNL1        0.1875
     17 C         143.1040  141.9186  164.8325 C.ar    1  UNL1        0.1531
     18 C         143.3574  141.1054  166.0672 C.ar    1  UNL1        0.0345
     19 C         142.8535  139.6952  166.1531 C.ar    1  UNL1        0.0604
     20 CL        143.1070  138.8821  167.3878 Cl      1  UNL1       -0.0822
     21 C         142.0961  139.0982  165.0043 C.ar    1  UNL1        0.0286
     22 C         141.8426  139.9113  163.7696 C.ar    1  UNL1        0.0895
     23 N         142.3465  141.3215  163.6837 N.ar    1  UNL1       -0.2431
     24 F         144.1118  144.7390  164.6608 F       1  UNL1       -0.1644
     25 C         143.6079  143.3288  164.7467 C.3     1  UNL1        0.4349
     26 F         142.2004  143.8220  164.5866 F       1  UNL1       -0.1644
     27 F         145.0154  142.8356  164.9068 F       1  UNL1       -0.1644
@<TRIPOS>BOND
     1    24    25    1
     2    25    26    1
     3    25    27    1
     4    25    17    1
     5    17    18   ar
     6    18    19   ar
     7    19    20    1
     8    19    21   ar
     9    21    22   ar
    10    22    16    1
    11    16    15    1
    12    15     1    1
    13     1     2    1
    14     2     9    1
    15     9    10   ar
    16    10    11   ar
    17    11    12   ar
    18    12    13   ar
    19    13    14   ar
    20     2     3    1
    21     3     4    1
    22     4     5    1
    23     5     6    1
    24     6     7    1
    25    22    23   ar
    26    23    17   ar
    27     7     2    1
    28    14     9   ar
    29     5     8    1
@<TRIPOS>MOLECULE
*****
 27 29 0 0 0
SMALL
GASTEIGER

@<TRIPOS>ATOM
      1 C         140.2057  143.1562  165.1696 C.3     1  UNL1        0.1467
      2 C         141.7021  143.2554  165.1949 C.3     1  UNL1        0.0489
      3 C         141.3868  144.3295  164.1966 C.3     1  UNL1        0.0236
      4 C         142.4969  145.1178  163.5672 C.3     1  UNL1        0.0690
      5 N         143.9225  144.8320  163.9362 N.3     1  UNL1       -0.2974
      6 C         144.2378  143.7579  164.9346 C.3     1  UNL1        0.0690
      7 C         143.1277  142.9696  165.5640 C.3     1  UNL1        0.0236
      8 H         144.3109  145.7000  164.3050 H       1  UNL1        0.1232
      9 C         141.4978  142.1468  166.1845 C.ar    1  UNL1       -0.0204
     10 C         140.3684  142.2191  167.1691 C.ar    1  UNL1       -0.0042
     11 C         140.1640  141.1105  168.1587 C.ar    1  UNL1       -0.0003
     12 C         141.0890  139.9297  168.1638 C.ar    1  UNL1       -0.0000
     13 C         142.2185  139.8574  167.1792 C.ar    1  UNL1       -0.0003
     14 C         142.4228  140.9660  166.1896 C.ar    1  UNL1       -0.0042
     15 O         139.4752  143.1697  163.8595 O.3     1  UNL1       -0.3470
     16 C         138.7024  141.9619  163.4192 C.3     1  UNL1        0.1875
     17 C         138.5589  138.6417  165.5884 C.ar    1  UNL1        0.1531
     18 C         139.7492  137.9020  165.0536 C.ar    1  UNL1        0.0345
     19 C         140.5906  138.5157  163.9740 C.ar    1  UNL1        0.0604
     20 CL        141.7809  137.7760  163.4392 Cl      1  UNL1       -0.0822
     21 C         140.2417  139.8689  163.4292 C.ar    1  UNL1        0.0286
     22 C         139.0513  140.6086  163.9640 C.ar    1  UNL1        0.0895
     23 N         138.2099  139.9950  165.0436 N.ar    1  UNL1       -0.2431
     24 F         136.8761  137.4144  167.7475 F       1  UNL1       -0.1644
     25 C         137.7175  138.0280  166.6680 C.3     1  UNL1        0.4349
     26 F         137.9592  136.6680  166.0833 F       1  UNL1       -0.1644
     27 F         137.4757  139.3881  167.2526 F       1  UNL1       -0.1644
@<TRIPOS>BOND
     1    24    25    1
     2    25    26    1
     3    25    27    1
     4    25    17    1
     5    17    18   ar
     6    18    19   ar
     7    19    20    1
     8    19    21   ar
     9    21    22   ar
    10    22    16    1
    11    16    15    1
    12    15     1    1
    13     1     2    1
    14     2     9    1
    15     9    10   ar
    16    10    11   ar
    17    11    12   ar
    18    12    13   ar
    19    13    14   ar
    20     2     3    1
    21     3     4    1
    22     4     5    1
    23     5     6    1
    24     6     7    1
    25    22    23   ar
    26    23    17   ar
    27     7     2    1
    28    14     9   ar
    29     5     8    1
@<TRIPOS>MOLECULE
*****
 27 29 0 0 0
SMALL
GASTEIGER

@<TRIPOS>ATOM
      1 C         142.7641  142.9544  164.4659 C.3     1  UNL1        0.1467
      2 C         141.3793  143.5042  164.6386 C.3     1  UNL1        0.0489
      3 C         141.8578  144.3563  163.5008 C.3     1  UNL1        0.0236
      4 C         140.9524  145.3961  162.9099 C.3     1  UNL1        0.0690
      5 N         139.5683  145.5836  163.4570 N.3     1  UNL1       -0.2974
      6 C         139.0898  144.7315  164.5949 C.3     1  UNL1        0.0690
      7 C         139.9952  143.6917  165.1857 C.3     1  UNL1        0.0236
      8 H         138.9223  145.4306  162.6826 H       1  UNL1        0.1232
      9 C         141.3817  142.4610  165.7165 C.ar    1  UNL1       -0.0204
     10 C         142.5195  142.3927  166.6915 C.ar    1  UNL1       -0.0042
     11 C         142.5219  141.3495  167.7695 C.ar    1  UNL1       -0.0003
     12 C         141.3866  140.3748  167.8724 C.ar    1  UNL1       -0.0000
     13 C         140.2486  140.4431  166.8973 C.ar    1  UNL1       -0.0003
     14 C         140.2463  141.4862  165.8194 C.ar    1  UNL1       -0.0042
     15 O         143.2658  142.6019  163.0968 O.3     1  UNL1       -0.3470
     16 C         143.6851  141.1946  162.7911 C.3     1  UNL1        0.1875
     17 C         141.1845  138.3249  163.9143 C.ar    1  UNL1        0.1531
     18 C         141.9101  137.7654  165.1019 C.ar    1  UNL1        0.0345
     19 C         143.2274  138.3489  165.5192 C.ar    1  UNL1        0.0604
     20 CL        143.9531  137.7894  166.7068 Cl      1  UNL1       -0.0822
     21 C         143.8191  139.4920  164.7489 C.ar    1  UNL1        0.0286
     22 C         143.0935  140.0515  163.5614 C.ar    1  UNL1        0.0895
     23 N         141.7762  139.4679  163.1441 N.ar    1  UNL1       -0.2431
     24 F         138.5498  137.1578  163.0797 F       1  UNL1       -0.1644
     25 C         139.8671  137.7414  163.4970 C.3     1  UNL1        0.4349
     26 F         139.4967  137.5474  164.9376 F       1  UNL1       -0.1644
     27 F         140.2376  137.9354  162.0565 F       1  UNL1       -0.1644
@<TRIPOS>BOND
     1    24    25    1
     2    25    26    1
     3    25    27    1
     4    25    17    1
     5    17    18   ar
     6    18    19   ar
     7    19    20    1
     8    19    21   ar
     9    21    22   ar
    10    22    16    1
    11    16    15    1
    12    15     1    1
    13     1     2    1
    14     2     9    1
    15     9    10   ar
    16    10    11   ar
    17    11    12   ar
    18    12    13   ar
    19    13    14   ar
    20     2     3    1
    21     3     4    1
    22     4     5    1
    23     5     6    1
    24     6     7    1
    25    22    23   ar
    26    23    17   ar
    27     7     2    1
    28    14     9   ar
    29     5     8    1
@<TRIPOS>MOLECULE
*****
 27 29 0 0 0
SMALL
GASTEIGER

@<TRIPOS>ATOM
      1 C         142.2679  140.4321  167.2619 C.3     1  UNL1        0.1467
      2 C         141.0614  140.3591  168.1501 C.3     1  UNL1        0.0489
      3 C         142.0640  140.9141  169.1179 C.3     1  UNL1        0.0236
      4 C         141.6575  141.2121  170.5306 C.3     1  UNL1        0.0690
      5 N         140.2482  140.9552  170.9756 N.3     1  UNL1       -0.2974
      6 C         139.2455  140.4002  170.0078 C.3     1  UNL1        0.0690
      7 C         139.6521  140.1022  168.5951 C.3     1  UNL1        0.0236
      8 H         139.8768  141.8458  171.3061 H       1  UNL1        0.1232
      9 C         140.4777  139.8295  166.8738 C.ar    1  UNL1       -0.0204
     10 C         139.0736  140.1874  166.4860 C.ar    1  UNL1       -0.0042
     11 C         138.4899  139.6578  165.2097 C.ar    1  UNL1       -0.0003
     12 C         139.3103  138.7704  164.3213 C.ar    1  UNL1       -0.0000
     13 C         140.7145  138.4125  164.7091 C.ar    1  UNL1       -0.0003
     14 C         141.2981  138.9421  165.9854 C.ar    1  UNL1       -0.0042
     15 O         143.0676  141.6990  167.1857 O.3     1  UNL1       -0.3470
     16 C         143.1082  142.4846  165.9086 C.3     1  UNL1        0.1875
     17 C         139.4760  143.2965  164.5308 C.ar    1  UNL1        0.1531
     18 C         139.5070  142.5827  163.2119 C.ar    1  UNL1        0.0345
     19 C         140.7384  141.8362  162.7919 C.ar    1  UNL1        0.0604
     20 CL        140.7693  141.1224  161.4729 Cl      1  UNL1       -0.0822
     21 C         141.9387  141.8035  163.6907 C.ar    1  UNL1        0.0286
     22 C         141.9077  142.5173  165.0096 C.ar    1  UNL1        0.0895
     23 N         140.6763  143.2637  165.4297 N.ar    1  UNL1       -0.2431
     24 F         137.0132  144.7895  165.3709 F       1  UNL1       -0.1644
     25 C         138.2446  144.0430  164.9509 C.3     1  UNL1        0.4349
     26 F         137.4162  142.8180  164.6995 F       1  UNL1       -0.1644
     27 F         139.0729  145.2680  165.2022 F       1  UNL1       -0.1644
@<TRIPOS>BOND
     1    24    25    1
     2    25    26    1
     3    25    27    1
     4    25    17    1
     5    17    18   ar
     6    18    19   ar
     7    19    20    1
     8    19    21   ar
     9    21    22   ar
    10    22    16    1
    11    16    15    1
    12    15     1    1
    13     1     2    1
    14     2     9    1
    15     9    10   ar
    16    10    11   ar
    17    11    12   ar
    18    12    13   ar
    19    13    14   ar
    20     2     3    1
    21     3     4    1
    22     4     5    1
    23     5     6    1
    24     6     7    1
    25    22    23   ar
    26    23    17   ar
    27     7     2    1
    28    14     9   ar
    29     5     8    1
@<TRIPOS>MOLECULE
*****
 27 29 0 0 0
SMALL
GASTEIGER

@<TRIPOS>ATOM
      1 C         140.1041  143.3946  165.2045 C.3     1  UNL1        0.1467
      2 C         141.5999  143.3491  165.1032 C.3     1  UNL1        0.0489
      3 C         141.3088  144.4745  164.1553 C.3     1  UNL1        0.0236
      4 C         142.4342  145.1692  163.4475 C.3     1  UNL1        0.0690
      5 N         143.8508  144.7383  163.6877 N.3     1  UNL1       -0.2974
      6 C         144.1419  143.6129  164.6356 C.3     1  UNL1        0.0690
      7 C         143.0165  142.9183  165.3434 C.3     1  UNL1        0.0236
      8 H         144.3516  145.5551  164.0376 H       1  UNL1        0.1232
      9 C         141.3716  142.2394  166.0864 C.ar    1  UNL1       -0.0204
     10 C         142.0220  140.9045  165.8749 C.ar    1  UNL1       -0.0042
     11 C         141.7937  139.7948  166.8580 C.ar    1  UNL1       -0.0003
     12 C         140.9149  140.0201  168.0525 C.ar    1  UNL1       -0.0000
     13 C         140.2645  141.3552  168.2640 C.ar    1  UNL1       -0.0003
     14 C         140.4928  142.4648  167.2809 C.ar    1  UNL1       -0.0042
     15 O         139.2677  143.3962  163.9592 O.3     1  UNL1       -0.3470
     16 C         138.2897  142.2863  163.7112 C.3     1  UNL1        0.1875
     17 C         139.9838  138.6996  163.5871 C.ar    1  UNL1        0.1531
     18 C         139.3682  138.0535  164.7926 C.ar    1  UNL1        0.0345
     19 C         138.3931  138.8183  165.6377 C.ar    1  UNL1        0.0604
     20 CL        137.7774  138.1720  166.8434 Cl      1  UNL1       -0.0822
     21 C         138.0335  140.2292  165.2773 C.ar    1  UNL1        0.0286
     22 C         138.6492  140.8753  164.0717 C.ar    1  UNL1        0.0895
     23 N         139.6243  140.1105  163.2266 N.ar    1  UNL1       -0.2431
     24 F         141.9341  137.1700  161.8969 F       1  UNL1       -0.1644
     25 C         140.9590  137.9348  162.7420 C.3     1  UNL1        0.4349
     26 F         139.8781  137.6670  161.7371 F       1  UNL1       -0.1644
     27 F         142.0399  138.2026  163.7469 F       1  UNL1       -0.1644
@<TRIPOS>BOND
     1    24    25    1
     2    25    26    1
     3    25    27    1
     4    25    17    1
     5    17    18   ar
     6    18    19   ar
     7    19    20    1
     8    19    21   ar
     9    21    22   ar
    10    22    16    1
    11    16    15    1
    12    15     1    1
    13     1     2    1
    14     2     9    1
    15     9    10   ar
    16    10    11   ar
    17    11    12   ar
    18    12    13   ar
    19    13    14   ar
    20     2     3    1
    21     3     4    1
    22     4     5    1
    23     5     6    1
    24     6     7    1
    25    22    23   ar
    26    23    17   ar
    27     7     2    1
    28    14     9   ar
    29     5     8    1
@<TRIPOS>MOLECULE
*****
 27 29 0 0 0
SMALL
GASTEIGER

@<TRIPOS>ATOM
      1 C         142.2643  140.1032  167.6190 C.3     1  UNL1        0.1467
      2 C         141.1678  140.3921  168.6010 C.3     1  UNL1        0.0489
      3 C         142.3353  140.2890  169.5370 C.3     1  UNL1        0.0236
      4 C         142.1331  140.4757  171.0115 C.3     1  UNL1        0.0690
      5 N         140.7634  140.7656  171.5500 N.3     1  UNL1       -0.2974
      6 C         139.5959  140.8687  170.6139 C.3     1  UNL1        0.0690
      7 C         139.7981  140.6819  169.1394 C.3     1  UNL1        0.0236
      8 H         140.8237  141.6556  172.0446 H       1  UNL1        0.1232
      9 C         140.3811  140.3948  167.3238 C.ar    1  UNL1       -0.0204
     10 C         140.8028  141.2753  166.1850 C.ar    1  UNL1       -0.0042
     11 C         140.0161  141.2781  164.9079 C.ar    1  UNL1       -0.0003
     12 C         138.8076  140.4004  164.7695 C.ar    1  UNL1       -0.0000
     13 C         138.3858  139.5198  165.9084 C.ar    1  UNL1       -0.0003
     14 C         139.1726  139.5171  167.1855 C.ar    1  UNL1       -0.0042
     15 O         143.1458  138.9047  167.8103 O.3     1  UNL1       -0.3470
     16 C         143.6538  138.1493  166.6181 C.3     1  UNL1        0.1875
     17 C         143.3304  139.7265  162.9907 C.ar    1  UNL1        0.1531
     18 C         142.0604  139.0855  162.5152 C.ar    1  UNL1        0.0345
     19 C         141.3215  138.1325  163.4072 C.ar    1  UNL1        0.0604
     20 CL        140.0515  137.4915  162.9316 Cl      1  UNL1       -0.0822
     21 C         141.8526  137.8204  164.7749 C.ar    1  UNL1        0.0286
     22 C         143.1226  138.4614  165.2504 C.ar    1  UNL1        0.0895
     23 N         143.8615  139.4144  164.3584 N.ar    1  UNL1       -0.2431
     24 F         144.8081  141.6325  161.2066 F       1  UNL1       -0.1644
     25 C         144.0693  140.6795  162.0987 C.3     1  UNL1        0.4349
     26 F         145.2629  140.6013  163.0037 F       1  UNL1       -0.1644
     27 F         142.8756  140.7577  161.1936 F       1  UNL1       -0.1644
@<TRIPOS>BOND
     1    24    25    1
     2    25    26    1
     3    25    27    1
     4    25    17    1
     5    17    18   ar
     6    18    19   ar
     7    19    20    1
     8    19    21   ar
     9    21    22   ar
    10    22    16    1
    11    16    15    1
    12    15     1    1
    13     1     2    1
    14     2     9    1
    15     9    10   ar
    16    10    11   ar
    17    11    12   ar
    18    12    13   ar
    19    13    14   ar
    20     2     3    1
    21     3     4    1
    22     4     5    1
    23     5     6    1
    24     6     7    1
    25    22    23   ar
    26    23    17   ar
    27     7     2    1
    28    14     9   ar
    29     5     8    1
