@<TRIPOS>MOLECULE
*****
 34 36 0 0 0
SMALL
GASTEIGER

@<TRIPOS>ATOM
      1 C         141.8369  139.2090  158.5270 C.3     1  UNL1        0.1102
      2 C         140.5899  138.4337  158.2205 C.3     1  UNL1        0.0296
      3 C         139.3760  138.5926  159.0872 C.3     1  UNL1        0.0730
      4 N         139.4091  139.5268  160.2604 N.3     1  UNL1       -0.2689
      5 C         140.6560  140.3020  160.5668 C.3     1  UNL1        0.0730
      6 C         141.8700  140.1431  159.7002 C.3     1  UNL1        0.0296
      7 C         143.2419  139.7216  158.4122 C.2     1  UNL1        0.3177
      8 O         144.2620  139.3524  159.4481 O.2     1  UNL1       -0.2501
      9 C         145.0746  140.8569  156.9622 C.3     1  UNL1        0.2556
     10 O         143.6268  140.6035  157.2615 O.3     1  UNL1       -0.4444
     11 C         142.2917  138.4529  157.3140 C.3     1  UNL1        0.1002
     12 N         142.1726  136.9581  157.2736 N.am    1  UNL1       -0.3003
     13 C         143.1985  136.1435  156.5429 C.2     1  UNL1        0.2461
     14 O         144.3435  136.8235  155.8527 O.2     1  UNL1       -0.2701
     15 H         141.4210  136.5118  157.7266 H       1  UNL1        0.1498
     16 C         143.0794  134.6488  156.5025 C.ar    1  UNL1        0.0594
     17 C         144.0568  133.7978  157.2577 C.ar    1  UNL1        0.0416
     18 C         143.9377  132.3031  157.2173 C.ar    1  UNL1        0.1419
     19 C         142.8411  131.6593  156.4216 C.ar    1  UNL1        0.0738
     20 C         141.8636  132.5103  155.6663 C.ar    1  UNL1        0.1419
     21 C         141.9827  134.0050  155.7068 C.ar    1  UNL1        0.0416
     22 O         144.9152  131.4521  157.9726 O.3     1  UNL1       -0.4713
     23 C         144.5927  130.0159  158.2613 C.3     1  UNL1        0.2525
     24 O         140.7671  131.8666  154.8707 O.3     1  UNL1       -0.4713
     25 C         140.7256  130.3746  154.7210 C.3     1  UNL1        0.2525
     26 C         138.1951  139.6856  161.1270 C.3     1  UNL1        0.0991
     27 C         138.3080  139.5202  162.6136 C.ar    1  UNL1       -0.0059
     28 C         138.7268  138.2010  163.1917 C.ar    1  UNL1        0.0002
     29 C         138.8397  138.0355  164.6783 C.ar    1  UNL1        0.0366
     30 C         138.5338  139.1892  165.5868 C.ar    1  UNL1        0.1387
     31 C         138.1150  140.5085  165.0086 C.ar    1  UNL1        0.0366
     32 C         138.0022  140.6739  163.5220 C.ar    1  UNL1        0.0002
     33 O         138.6467  139.0238  167.0733 O.3     1  UNL1       -0.4714
     34 C         139.4481  140.0037  167.8782 C.3     1  UNL1        0.2525
@<TRIPOS>BOND
     1     9    10    1
     2    10     7    1
     3     7     8    2
     4     7     1    1
     5     1    11    1
     6    11    12    1
     7    12    13   am
     8    13    14    2
     9    13    16    1
    10    16    17   ar
    11    17    18   ar
    12    18    22    1
    13    22    23    1
    14    18    19   ar
    15    19    20   ar
    16    20    24    1
    17    24    25    1
    18    20    21   ar
    19     1     2    1
    20     2     3    1
    21     3     4    1
    22     4    26    1
    23    26    27    1
    24    27    28   ar
    25    28    29   ar
    26    29    30   ar
    27    30    33    1
    28    33    34    1
    29    30    31   ar
    30    31    32   ar
    31     4     5    1
    32     5     6    1
    33     6     1    1
    34    21    16   ar
    35    32    27   ar
    36    12    15    1
@<TRIPOS>MOLECULE
*****
 34 36 0 0 0
SMALL
GASTEIGER

@<TRIPOS>ATOM
      1 C         142.0781  144.1214  161.3351 C.3     1  UNL1        0.1102
      2 C         140.6928  144.6893  161.2427 C.3     1  UNL1        0.0296
      3 C         139.9715  144.6968  159.9276 C.3     1  UNL1        0.0730
      4 N         140.6355  144.1364  158.7048 N.3     1  UNL1       -0.2689
      5 C         142.0207  143.5685  158.7972 C.3     1  UNL1        0.0730
      6 C         142.7420  143.5610  160.1123 C.3     1  UNL1        0.0296
      7 C         143.3912  143.6970  161.9231 C.2     1  UNL1        0.3177
      8 O         144.3007  144.7169  162.5414 O.2     1  UNL1       -0.2501
      9 C         145.0737  141.8173  162.5442 C.3     1  UNL1        0.2556
     10 O         143.7946  142.2526  161.8927 O.3     1  UNL1       -0.4444
     11 C         141.8701  144.5344  162.7620 C.3     1  UNL1        0.1002
     12 N         141.6476  143.4937  163.8192 N.am    1  UNL1       -0.3003
     13 C         140.4730  143.6049  164.7455 C.2     1  UNL1        0.2461
     14 O         139.5209  144.7566  164.6146 O.2     1  UNL1       -0.2701
     15 H         142.2724  142.7378  163.9050 H       1  UNL1        0.1498
     16 C         140.2504  142.5642  165.8026 C.ar    1  UNL1        0.0594
     17 C         139.5820  141.2684  165.4505 C.ar    1  UNL1        0.0416
     18 C         139.3594  140.2278  166.5077 C.ar    1  UNL1        0.1419
     19 C         139.8054  140.4829  167.9169 C.ar    1  UNL1        0.0738
     20 C         140.4739  141.7788  168.2691 C.ar    1  UNL1        0.1419
     21 C         140.6964  142.8194  167.2119 C.ar    1  UNL1        0.0416
     22 O         138.6909  138.9319  166.1555 O.3     1  UNL1       -0.4713
     23 C         137.5833  138.4012  167.0165 C.3     1  UNL1        0.2525
     24 O         140.9198  142.0340  169.6783 O.3     1  UNL1       -0.4713
     25 C         141.9967  143.0413  169.9535 C.3     1  UNL1        0.2525
     26 C         139.9141  144.1439  157.3896 C.3     1  UNL1        0.0991
     27 C         138.8148  143.1566  157.1315 C.ar    1  UNL1       -0.0059
     28 C         137.7463  143.4696  156.1263 C.ar    1  UNL1        0.0002
     29 C         136.6469  142.4823  155.8681 C.ar    1  UNL1        0.0366
     30 C         136.6160  141.1819  156.6153 C.ar    1  UNL1        0.1387
     31 C         137.6845  140.8689  157.6205 C.ar    1  UNL1        0.0366
     32 C         138.7838  141.8562  157.8786 C.ar    1  UNL1        0.0002
     33 O         135.5167  140.1946  156.3572 O.3     1  UNL1       -0.4714
     34 C         134.2393  140.6459  155.7130 C.3     1  UNL1        0.2525
@<TRIPOS>BOND
     1     9    10    1
     2    10     7    1
     3     7     8    2
     4     7     1    1
     5     1    11    1
     6    11    12    1
     7    12    13   am
     8    13    14    2
     9    13    16    1
    10    16    17   ar
    11    17    18   ar
    12    18    22    1
    13    22    23    1
    14    18    19   ar
    15    19    20   ar
    16    20    24    1
    17    24    25    1
    18    20    21   ar
    19     1     2    1
    20     2     3    1
    21     3     4    1
    22     4    26    1
    23    26    27    1
    24    27    28   ar
    25    28    29   ar
    26    29    30   ar
    27    30    33    1
    28    33    34    1
    29    30    31   ar
    30    31    32   ar
    31     4     5    1
    32     5     6    1
    33     6     1    1
    34    21    16   ar
    35    32    27   ar
    36    12    15    1
@<TRIPOS>MOLECULE
*****
 34 36 0 0 0
SMALL
GASTEIGER

@<TRIPOS>ATOM
      1 C         143.1792  138.7303  162.8230 C.3     1  UNL1        0.1102
      2 C         142.0855  138.0313  163.5747 C.3     1  UNL1        0.0296
      3 C         142.1352  137.9541  165.0719 C.3     1  UNL1        0.0730
      4 N         143.2787  138.5760  165.8173 N.3     1  UNL1       -0.2689
      5 C         144.3725  139.2750  165.0656 C.3     1  UNL1        0.0730
      6 C         144.3227  139.3521  163.5684 C.3     1  UNL1        0.0296
      7 C         143.9713  139.2795  161.6737 C.2     1  UNL1        0.3177
      8 O         144.2887  138.4062  160.4962 O.2     1  UNL1       -0.2501
      9 C         144.1726  141.6074  160.5378 C.3     1  UNL1        0.2556
     10 O         144.4462  140.7021  161.7020 O.3     1  UNL1       -0.4444
     11 C         142.3108  138.2991  161.6785 C.3     1  UNL1        0.1002
     12 N         141.6521  139.3278  160.8078 N.am    1  UNL1       -0.3003
     13 C         140.1557  139.4088  160.7435 C.2     1  UNL1        0.2461
     14 O         139.3179  138.4612  161.5498 O.2     1  UNL1       -0.2701
     15 H         142.2020  139.9498  160.2786 H       1  UNL1        0.1498
     16 C         139.4970  140.4375  159.8728 C.ar    1  UNL1        0.0594
     17 C         138.5232  140.0117  158.8144 C.ar    1  UNL1        0.0416
     18 C         137.8646  141.0404  157.9437 C.ar    1  UNL1        0.1419
     19 C         138.1797  142.4948  158.1315 C.ar    1  UNL1        0.0738
     20 C         139.1535  142.9206  159.1901 C.ar    1  UNL1        0.1419
     21 C         139.8122  141.8920  160.0607 C.ar    1  UNL1        0.0416
     22 O         136.8907  140.6146  156.8852 O.3     1  UNL1       -0.4713
     23 C         136.2672  141.6387  155.9840 C.3     1  UNL1        0.2525
     24 O         139.4687  144.3750  159.3779 O.3     1  UNL1       -0.4713
     25 C         140.8619  144.8005  159.7354 C.3     1  UNL1        0.2525
     26 C         143.3285  138.4989  167.3145 C.3     1  UNL1        0.0991
     27 C         142.6931  139.5761  168.1426 C.ar    1  UNL1       -0.0059
     28 C         142.3886  139.3281  169.5903 C.ar    1  UNL1        0.0002
     29 C         141.7532  140.4054  170.4184 C.ar    1  UNL1        0.0366
     30 C         141.4222  141.7307  169.7988 C.ar    1  UNL1        0.1387
     31 C         141.7266  141.9788  168.3511 C.ar    1  UNL1        0.0366
     32 C         142.3620  140.9015  167.5230 C.ar    1  UNL1        0.0002
     33 O         140.7867  142.8080  170.6268 O.3     1  UNL1       -0.4714
     34 C         140.4636  144.1363  170.0093 C.3     1  UNL1        0.2525
@<TRIPOS>BOND
     1     9    10    1
     2    10     7    1
     3     7     8    2
     4     7     1    1
     5     1    11    1
     6    11    12    1
     7    12    13   am
     8    13    14    2
     9    13    16    1
    10    16    17   ar
    11    17    18   ar
    12    18    22    1
    13    22    23    1
    14    18    19   ar
    15    19    20   ar
    16    20    24    1
    17    24    25    1
    18    20    21   ar
    19     1     2    1
    20     2     3    1
    21     3     4    1
    22     4    26    1
    23    26    27    1
    24    27    28   ar
    25    28    29   ar
    26    29    30   ar
    27    30    33    1
    28    33    34    1
    29    30    31   ar
    30    31    32   ar
    31     4     5    1
    32     5     6    1
    33     6     1    1
    34    21    16   ar
    35    32    27   ar
    36    12    15    1
@<TRIPOS>MOLECULE
*****
 34 36 0 0 0
SMALL
GASTEIGER

@<TRIPOS>ATOM
      1 C         138.7921  139.3217  161.4454 C.3     1  UNL1        0.1102
      2 C         139.0320  138.0482  162.2006 C.3     1  UNL1        0.0296
      3 C         138.8890  138.0232  163.6936 C.3     1  UNL1        0.0730
      4 N         138.5061  139.2719  164.4313 N.3     1  UNL1       -0.2689
      5 C         138.2661  140.5455  163.6760 C.3     1  UNL1        0.0730
      6 C         138.4091  140.5704  162.1831 C.3     1  UNL1        0.0296
      7 C         138.6705  140.2768  160.2952 C.2     1  UNL1        0.3177
      8 O         139.5591  141.4833  160.2249 O.2     1  UNL1       -0.2501
      9 C         137.6884  140.8419  157.9572 C.3     1  UNL1        0.2556
     10 O         137.6603  140.0256  159.2152 O.3     1  UNL1       -0.4444
     11 C         139.1328  138.4047  160.3083 C.3     1  UNL1        0.1002
     12 N         140.3885  138.6246  159.5179 N.am    1  UNL1       -0.3003
     13 C         140.4368  138.2482  158.0666 C.2     1  UNL1        0.2461
     14 O         139.2294  137.6520  157.4058 O.2     1  UNL1       -0.2701
     15 H         141.1810  139.0160  159.9515 H       1  UNL1        0.1498
     16 C         141.6925  138.4681  157.2762 C.ar    1  UNL1        0.0594
     17 C         142.4607  137.2937  156.7466 C.ar    1  UNL1        0.0416
     18 C         143.7165  137.5136  155.9561 C.ar    1  UNL1        0.1419
     19 C         144.2040  138.9079  155.6953 C.ar    1  UNL1        0.0738
     20 C         143.4358  140.0825  156.2249 C.ar    1  UNL1        0.1419
     21 C         142.1801  139.8626  157.0153 C.ar    1  UNL1        0.0416
     22 O         144.4847  136.3390  155.4266 O.3     1  UNL1       -0.4713
     23 C         143.8162  135.0025  155.2967 C.3     1  UNL1        0.2525
     24 O         143.9233  141.4768  155.9640 O.3     1  UNL1       -0.4713
     25 C         144.6321  142.2380  157.0448 C.3     1  UNL1        0.2525
     26 C         138.3631  139.2470  165.9242 C.3     1  UNL1        0.0991
     27 C         139.5514  139.5251  166.7962 C.ar    1  UNL1       -0.0059
     28 C         139.3548  139.8920  168.2374 C.ar    1  UNL1        0.0002
     29 C         140.5432  140.1701  169.1095 C.ar    1  UNL1        0.0366
     30 C         141.9282  140.0812  168.5404 C.ar    1  UNL1        0.1387
     31 C         142.1248  139.7143  167.0993 C.ar    1  UNL1        0.0366
     32 C         140.9365  139.4363  166.2273 C.ar    1  UNL1        0.0002
     33 O         143.1165  140.3593  169.4124 O.3     1  UNL1       -0.4714
     34 C         143.4483  141.7698  169.8006 C.3     1  UNL1        0.2525
@<TRIPOS>BOND
     1     9    10    1
     2    10     7    1
     3     7     8    2
     4     7     1    1
     5     1    11    1
     6    11    12    1
     7    12    13   am
     8    13    14    2
     9    13    16    1
    10    16    17   ar
    11    17    18   ar
    12    18    22    1
    13    22    23    1
    14    18    19   ar
    15    19    20   ar
    16    20    24    1
    17    24    25    1
    18    20    21   ar
    19     1     2    1
    20     2     3    1
    21     3     4    1
    22     4    26    1
    23    26    27    1
    24    27    28   ar
    25    28    29   ar
    26    29    30   ar
    27    30    33    1
    28    33    34    1
    29    30    31   ar
    30    31    32   ar
    31     4     5    1
    32     5     6    1
    33     6     1    1
    34    21    16   ar
    35    32    27   ar
    36    12    15    1
@<TRIPOS>MOLECULE
*****
 34 36 0 0 0
SMALL
GASTEIGER

@<TRIPOS>ATOM
      1 C         144.4627  141.1824  161.7163 C.3     1  UNL1        0.1102
      2 C         143.9937  139.9861  160.9425 C.3     1  UNL1        0.0296
      3 C         143.7998  140.0818  159.4582 C.3     1  UNL1        0.0730
      4 N         144.0750  141.3739  158.7476 N.3     1  UNL1       -0.2689
      5 C         144.5440  142.5702  159.5214 C.3     1  UNL1        0.0730
      6 C         144.7378  142.4745  161.0057 C.3     1  UNL1        0.0296
      7 C         144.8874  142.0326  162.8769 C.2     1  UNL1        0.3177
      8 O         146.0386  141.6050  163.7381 O.2     1  UNL1       -0.2501
      9 C         144.0651  143.8055  164.5887 C.3     1  UNL1        0.2556
     10 O         144.1608  143.3102  163.1761 O.3     1  UNL1       -0.4444
     11 C         144.3350  140.1856  162.8298 C.3     1  UNL1        0.1002
     12 N         143.2414  140.3322  163.8460 N.am    1  UNL1       -0.3003
     13 C         143.3334  139.6082  165.1565 C.2     1  UNL1        0.2461
     14 O         144.5189  138.7376  165.4508 O.2     1  UNL1       -0.2701
     15 H         142.4633  140.9036  163.6528 H       1  UNL1        0.1498
     16 C         142.2398  139.7548  166.1727 C.ar    1  UNL1        0.0594
     17 C         140.8133  139.5074  165.7803 C.ar    1  UNL1        0.0416
     18 C         139.7197  139.6540  166.7965 C.ar    1  UNL1        0.1419
     19 C         140.0526  140.0481  168.2050 C.ar    1  UNL1        0.0738
     20 C         141.4791  140.2955  168.5974 C.ar    1  UNL1        0.1419
     21 C         142.5727  140.1489  167.5812 C.ar    1  UNL1        0.0416
     22 O         138.2932  139.4065  166.4041 O.3     1  UNL1       -0.4713
     23 C         137.4894  138.3610  167.1187 C.3     1  UNL1        0.2525
     24 O         141.8120  140.6896  170.0058 O.3     1  UNL1       -0.4713
     25 C         140.7650  141.3200  170.8756 C.3     1  UNL1        0.2525
     26 C         143.8811  141.4696  157.2633 C.3     1  UNL1        0.0991
     27 C         145.0723  141.5206  156.3531 C.ar    1  UNL1       -0.0059
     28 C         144.9738  140.9788  154.9578 C.ar    1  UNL1        0.0002
     29 C         146.1649  141.0299  154.0475 C.ar    1  UNL1        0.0366
     30 C         147.4546  141.6227  154.5325 C.ar    1  UNL1        0.1387
     31 C         147.5531  142.1646  155.9278 C.ar    1  UNL1        0.0366
     32 C         146.3620  142.1135  156.8380 C.ar    1  UNL1        0.0002
     33 O         148.6458  141.6738  153.6223 O.3     1  UNL1       -0.4714
     34 C         148.4818  142.1096  152.1963 C.3     1  UNL1        0.2525
@<TRIPOS>BOND
     1     9    10    1
     2    10     7    1
     3     7     8    2
     4     7     1    1
     5     1    11    1
     6    11    12    1
     7    12    13   am
     8    13    14    2
     9    13    16    1
    10    16    17   ar
    11    17    18   ar
    12    18    22    1
    13    22    23    1
    14    18    19   ar
    15    19    20   ar
    16    20    24    1
    17    24    25    1
    18    20    21   ar
    19     1     2    1
    20     2     3    1
    21     3     4    1
    22     4    26    1
    23    26    27    1
    24    27    28   ar
    25    28    29   ar
    26    29    30   ar
    27    30    33    1
    28    33    34    1
    29    30    31   ar
    30    31    32   ar
    31     4     5    1
    32     5     6    1
    33     6     1    1
    34    21    16   ar
    35    32    27   ar
    36    12    15    1
@<TRIPOS>MOLECULE
*****
 34 36 0 0 0
SMALL
GASTEIGER

@<TRIPOS>ATOM
      1 C         143.6825  139.7358  160.9063 C.3     1  UNL1        0.1102
      2 C         143.2101  138.3628  160.5298 C.3     1  UNL1        0.0296
      3 C         142.9422  138.0299  159.0920 C.3     1  UNL1        0.0730
      4 N         143.1466  139.0700  158.0306 N.3     1  UNL1       -0.2689
      5 C         143.6189  140.4430  158.4071 C.3     1  UNL1        0.0730
      6 C         143.8869  140.7759  159.8449 C.3     1  UNL1        0.0296
      7 C         144.1389  140.8864  161.7536 C.2     1  UNL1        0.3177
      8 O         143.3687  142.1735  161.7483 O.2     1  UNL1       -0.2501
      9 C         145.7034  141.8120  163.6098 C.3     1  UNL1        0.2556
     10 O         145.3654  140.7498  162.6061 O.3     1  UNL1       -0.4444
     11 C         143.6366  139.0953  162.2618 C.3     1  UNL1        0.1002
     12 N         142.6308  139.5553  163.2751 N.am    1  UNL1       -0.3003
     13 C         142.9107  139.3880  164.7392 C.2     1  UNL1        0.2461
     14 O         144.1965  138.7607  165.1901 O.2     1  UNL1       -0.2701
     15 H         141.7869  139.9671  162.9792 H       1  UNL1        0.1498
     16 C         141.9049  139.8480  165.7525 C.ar    1  UNL1        0.0594
     17 C         140.4707  139.4261  165.6306 C.ar    1  UNL1        0.0416
     18 C         139.4649  139.8861  166.6439 C.ar    1  UNL1        0.1419
     19 C         139.8933  140.7681  167.7790 C.ar    1  UNL1        0.0738
     20 C         141.3276  141.1901  167.9009 C.ar    1  UNL1        0.1419
     21 C         142.3334  140.7301  166.8876 C.ar    1  UNL1        0.0416
     22 O         138.0306  139.4641  166.5220 O.3     1  UNL1       -0.4713
     23 C         137.6242  138.0703  166.8991 C.3     1  UNL1        0.2525
     24 O         141.7560  142.0722  169.0360 O.3     1  UNL1       -0.4713
     25 C         143.1817  142.0557  169.5017 C.3     1  UNL1        0.2525
     26 C         142.8786  138.7371  156.5928 C.3     1  UNL1        0.0991
     27 C         142.7741  137.3042  156.1616 C.ar    1  UNL1       -0.0059
     28 C         144.0161  136.5203  155.8566 C.ar    1  UNL1        0.0002
     29 C         143.9117  135.0874  155.4254 C.ar    1  UNL1        0.0366
     30 C         142.5652  134.4384  155.2992 C.ar    1  UNL1        0.1387
     31 C         141.3232  135.2223  155.6042 C.ar    1  UNL1        0.0366
     32 C         141.4277  136.6552  156.0354 C.ar    1  UNL1        0.0002
     33 O         142.4607  133.0056  154.8680 O.3     1  UNL1       -0.4714
     34 C         141.1317  132.3104  154.8914 C.3     1  UNL1        0.2525
@<TRIPOS>BOND
     1     9    10    1
     2    10     7    1
     3     7     8    2
     4     7     1    1
     5     1    11    1
     6    11    12    1
     7    12    13   am
     8    13    14    2
     9    13    16    1
    10    16    17   ar
    11    17    18   ar
    12    18    22    1
    13    22    23    1
    14    18    19   ar
    15    19    20   ar
    16    20    24    1
    17    24    25    1
    18    20    21   ar
    19     1     2    1
    20     2     3    1
    21     3     4    1
    22     4    26    1
    23    26    27    1
    24    27    28   ar
    25    28    29   ar
    26    29    30   ar
    27    30    33    1
    28    33    34    1
    29    30    31   ar
    30    31    32   ar
    31     4     5    1
    32     5     6    1
    33     6     1    1
    34    21    16   ar
    35    32    27   ar
    36    12    15    1
@<TRIPOS>MOLECULE
*****
 34 36 0 0 0
SMALL
GASTEIGER

@<TRIPOS>ATOM
      1 C         141.5555  136.9542  156.4175 C.3     1  UNL1        0.1102
      2 C         142.9569  136.5724  156.7920 C.3     1  UNL1        0.0296
      3 C         143.5209  135.2568  156.3437 C.3     1  UNL1        0.0730
      4 N         142.6835  134.3230  155.5209 N.3     1  UNL1       -0.2689
      5 C         141.2821  134.7049  155.1465 C.3     1  UNL1        0.0730
      6 C         140.7181  136.0205  155.5948 C.3     1  UNL1        0.0296
      7 C         140.2926  137.7573  156.3167 C.2     1  UNL1        0.3177
      8 O         138.9765  137.0641  156.1234 O.2     1  UNL1       -0.2501
      9 C         139.1239  140.0678  156.1027 C.3     1  UNL1        0.2556
     10 O         140.3457  139.2534  156.4091 O.3     1  UNL1       -0.4444
     11 C         141.9543  138.1668  157.2052 C.3     1  UNL1        0.1002
     12 N         141.9714  138.1152  158.7043 N.am    1  UNL1       -0.3003
     13 C         143.0298  138.8545  159.4681 C.2     1  UNL1        0.2461
     14 O         144.0709  139.6454  158.7330 O.2     1  UNL1       -0.2701
     15 H         141.2881  137.5961  159.1868 H       1  UNL1        0.1498
     16 C         143.0469  138.8029  160.9671 C.ar    1  UNL1        0.0594
     17 C         141.9301  138.1284  161.7072 C.ar    1  UNL1        0.0416
     18 C         141.9473  138.0767  163.2062 C.ar    1  UNL1        0.1419
     19 C         143.0812  138.6996  163.9651 C.ar    1  UNL1        0.0738
     20 C         144.1981  139.3741  163.2251 C.ar    1  UNL1        0.1419
     21 C         144.1810  139.4258  161.7261 C.ar    1  UNL1        0.0416
     22 O         140.8303  137.4022  163.9462 O.3     1  UNL1       -0.4713
     23 C         139.4256  137.4915  163.4278 C.3     1  UNL1        0.2525
     24 O         145.3321  139.9970  163.9841 O.3     1  UNL1       -0.4713
     25 C         145.6282  141.4588  163.8244 C.3     1  UNL1        0.2525
     26 C         143.2476  133.0074  155.0726 C.3     1  UNL1        0.0991
     27 C         143.6351  131.9727  156.0871 C.ar    1  UNL1       -0.0059
     28 C         144.7685  132.2377  157.0333 C.ar    1  UNL1        0.0002
     29 C         145.1561  131.2030  158.0479 C.ar    1  UNL1        0.0366
     30 C         144.4103  129.9034  158.1162 C.ar    1  UNL1        0.1387
     31 C         143.2769  129.6384  157.1700 C.ar    1  UNL1        0.0366
     32 C         142.8894  130.6730  156.1555 C.ar    1  UNL1        0.0002
     33 O         144.7978  128.8687  159.1307 O.3     1  UNL1       -0.4714
     34 C         143.7614  128.2968  160.0521 C.3     1  UNL1        0.2525
@<TRIPOS>BOND
     1     9    10    1
     2    10     7    1
     3     7     8    2
     4     7     1    1
     5     1    11    1
     6    11    12    1
     7    12    13   am
     8    13    14    2
     9    13    16    1
    10    16    17   ar
    11    17    18   ar
    12    18    22    1
    13    22    23    1
    14    18    19   ar
    15    19    20   ar
    16    20    24    1
    17    24    25    1
    18    20    21   ar
    19     1     2    1
    20     2     3    1
    21     3     4    1
    22     4    26    1
    23    26    27    1
    24    27    28   ar
    25    28    29   ar
    26    29    30   ar
    27    30    33    1
    28    33    34    1
    29    30    31   ar
    30    31    32   ar
    31     4     5    1
    32     5     6    1
    33     6     1    1
    34    21    16   ar
    35    32    27   ar
    36    12    15    1
@<TRIPOS>MOLECULE
*****
 34 36 0 0 0
SMALL
GASTEIGER

@<TRIPOS>ATOM
      1 C         138.6041  139.2668  161.8822 C.3     1  UNL1        0.1102
      2 C         139.2106  138.0844  162.5779 C.3     1  UNL1        0.0296
      3 C         139.1998  138.0089  164.0760 C.3     1  UNL1        0.0730
      4 N         138.5825  139.1158  164.8783 N.3     1  UNL1       -0.2689
      5 C         137.9759  140.2982  164.1826 C.3     1  UNL1        0.0730
      6 C         137.9867  140.3737  162.6845 C.3     1  UNL1        0.0296
      7 C         138.1581  140.1742  160.7741 C.2     1  UNL1        0.3177
      8 O         137.1034  139.7183  159.8100 O.2     1  UNL1       -0.2501
      9 C         138.6186  142.2932  159.3431 C.3     1  UNL1        0.2556
     10 O         138.7669  141.5375  160.6303 O.3     1  UNL1       -0.4444
     11 C         139.0665  138.4750  160.6951 C.3     1  UNL1        0.1002
     12 N         140.2877  138.9040  159.9370 N.am    1  UNL1       -0.3003
     13 C         140.3710  138.6742  158.4570 C.2     1  UNL1        0.2461
     14 O         139.2330  138.0155  157.7352 O.2     1  UNL1       -0.2701
     15 H         141.0346  139.3363  160.4109 H       1  UNL1        0.1498
     16 C         141.5922  139.1031  157.6990 C.ar    1  UNL1        0.0594
     17 C         141.9414  140.5586  157.6010 C.ar    1  UNL1        0.0416
     18 C         143.1626  140.9876  156.8430 C.ar    1  UNL1        0.1419
     19 C         144.0346  139.9611  156.1829 C.ar    1  UNL1        0.0738
     20 C         143.6855  138.5055  156.2808 C.ar    1  UNL1        0.1419
     21 C         142.4643  138.0765  157.0389 C.ar    1  UNL1        0.0416
     22 O         143.5117  142.4431  156.7451 O.3     1  UNL1       -0.4713
     23 C         143.7639  143.0653  155.4037 C.3     1  UNL1        0.2525
     24 O         144.5575  137.4790  155.6208 O.3     1  UNL1       -0.4713
     25 C         144.1253  136.0432  155.5782 C.3     1  UNL1        0.2525
     26 C         138.5717  139.0403  166.3763 C.3     1  UNL1        0.0991
     27 C         139.2573  140.1008  167.1857 C.ar    1  UNL1       -0.0059
     28 C         140.0015  141.2062  166.4969 C.ar    1  UNL1        0.0002
     29 C         140.6872  142.2668  167.3062 C.ar    1  UNL1        0.0366
     30 C         140.6287  142.2220  168.8044 C.ar    1  UNL1        0.1387
     31 C         139.8845  141.1167  169.4932 C.ar    1  UNL1        0.0366
     32 C         139.1989  140.0561  168.6839 C.ar    1  UNL1        0.0002
     33 O         141.3143  143.2826  169.6138 O.3     1  UNL1       -0.4714
     34 C         142.5936  142.9685  170.3315 C.3     1  UNL1        0.2525
@<TRIPOS>BOND
     1     9    10    1
     2    10     7    1
     3     7     8    2
     4     7     1    1
     5     1    11    1
     6    11    12    1
     7    12    13   am
     8    13    14    2
     9    13    16    1
    10    16    17   ar
    11    17    18   ar
    12    18    22    1
    13    22    23    1
    14    18    19   ar
    15    19    20   ar
    16    20    24    1
    17    24    25    1
    18    20    21   ar
    19     1     2    1
    20     2     3    1
    21     3     4    1
    22     4    26    1
    23    26    27    1
    24    27    28   ar
    25    28    29   ar
    26    29    30   ar
    27    30    33    1
    28    33    34    1
    29    30    31   ar
    30    31    32   ar
    31     4     5    1
    32     5     6    1
    33     6     1    1
    34    21    16   ar
    35    32    27   ar
    36    12    15    1
@<TRIPOS>MOLECULE
*****
 34 36 0 0 0
SMALL
GASTEIGER

@<TRIPOS>ATOM
      1 C         141.9273  137.5709  156.4643 C.3     1  UNL1        0.1102
      2 C         140.8478  136.6398  155.9978 C.3     1  UNL1        0.0296
      3 C         141.2098  135.3270  155.3687 C.3     1  UNL1        0.0730
      4 N         142.6514  134.9455  155.2062 N.3     1  UNL1       -0.2689
      5 C         143.7309  135.8766  155.6727 C.3     1  UNL1        0.0730
      6 C         143.3689  137.1893  156.3018 C.3     1  UNL1        0.0296
      7 C         142.5856  138.7804  157.0590 C.2     1  UNL1        0.3177
      8 O         142.4407  140.1167  156.3932 O.2     1  UNL1       -0.2501
      9 C         143.6783  139.8689  159.1497 C.3     1  UNL1        0.2556
     10 O         143.3887  138.6537  158.3195 O.3     1  UNL1       -0.4444
     11 C         140.7144  138.3725  156.8334 C.3     1  UNL1        0.1002
     12 N         140.3439  138.5512  158.2759 N.am    1  UNL1       -0.3003
     13 C         139.0890  139.2867  158.6423 C.2     1  UNL1        0.2461
     14 O         138.2047  139.8436  157.5663 O.2     1  UNL1       -0.2701
     15 H         140.9243  138.1857  158.9821 H       1  UNL1        0.1498
     16 C         138.7185  139.4654  160.0848 C.ar    1  UNL1        0.0594
     17 C         138.9217  138.3407  161.0562 C.ar    1  UNL1        0.0416
     18 C         138.5512  138.5194  162.4987 C.ar    1  UNL1        0.1419
     19 C         137.9775  139.8228  162.9698 C.ar    1  UNL1        0.0738
     20 C         137.7743  140.9476  161.9984 C.ar    1  UNL1        0.1419
     21 C         138.1448  140.7689  160.5559 C.ar    1  UNL1        0.0416
     22 O         138.7544  137.3946  163.4702 O.3     1  UNL1       -0.4713
     23 C         138.9986  137.6908  164.9202 C.3     1  UNL1        0.2525
     24 O         137.2006  142.2510  162.4695 O.3     1  UNL1       -0.4713
     25 C         138.0837  143.4567  162.5972 C.3     1  UNL1        0.2525
     26 C         143.0134  133.6328  154.5771 C.3     1  UNL1        0.0991
     27 C         143.2628  132.4312  155.4396 C.ar    1  UNL1       -0.0059
     28 C         142.3654  131.2337  155.3353 C.ar    1  UNL1        0.0002
     29 C         142.6148  130.0321  156.1978 C.ar    1  UNL1        0.0366
     30 C         143.7616  130.0279  157.1647 C.ar    1  UNL1        0.1387
     31 C         144.6590  131.2254  157.2691 C.ar    1  UNL1        0.0366
     32 C         144.4095  132.4270  156.4065 C.ar    1  UNL1        0.0002
     33 O         144.0110  128.8264  158.0272 O.3     1  UNL1       -0.4714
     34 C         145.1838  128.8048  158.9623 C.3     1  UNL1        0.2525
@<TRIPOS>BOND
     1     9    10    1
     2    10     7    1
     3     7     8    2
     4     7     1    1
     5     1    11    1
     6    11    12    1
     7    12    13   am
     8    13    14    2
     9    13    16    1
    10    16    17   ar
    11    17    18   ar
    12    18    22    1
    13    22    23    1
    14    18    19   ar
    15    19    20   ar
    16    20    24    1
    17    24    25    1
    18    20    21   ar
    19     1     2    1
    20     2     3    1
    21     3     4    1
    22     4    26    1
    23    26    27    1
    24    27    28   ar
    25    28    29   ar
    26    29    30   ar
    27    30    33    1
    28    33    34    1
    29    30    31   ar
    30    31    32   ar
    31     4     5    1
    32     5     6    1
    33     6     1    1
    34    21    16   ar
    35    32    27   ar
    36    12    15    1
