@<TRIPOS>MOLECULE
*****
 43 46 0 0 0
SMALL
GASTEIGER

@<TRIPOS>ATOM
      1 C         141.2087  140.9850  162.4001 C.3     1  UNL1        0.0808
      2 C         140.8586  140.7374  163.8375 C.ar    1  UNL1        0.0375
      3 C         140.9620  141.8510  164.8371 C.ar    1  UNL1        0.0023
      4 C         140.6119  141.6035  166.2745 C.ar    1  UNL1        0.0181
      5 C         140.7153  142.7171  167.2741 C.ar    1  UNL1        0.0082
      6 C         140.3652  142.4696  168.7116 C.ar    1  UNL1        0.0347
      7 BR        140.4686  143.5832  169.7112 Br      1  UNL1       -0.0490
      8 C         139.9117  141.1084  169.1494 C.ar    1  UNL1        0.0082
      9 C         139.8084  139.9948  168.1498 C.ar    1  UNL1        0.0197
     10 C         140.1584  140.2423  166.7124 C.ar    1  UNL1        0.0844
     11 N         140.0550  139.1287  165.7128 N.ar    1  UNL1       -0.2119
     12 C         140.4051  139.3763  164.2753 C.ar    1  UNL1        0.2211
     13 O         140.3018  138.2627  163.2758 O.3     1  UNL1       -0.4563
     14 C         138.9852  137.5820  163.0448 C.3     1  UNL1        0.2542
     15 C         140.3216  140.4591  161.3108 C.ar    1  UNL1        0.0245
     16 C         138.8690  140.8319  161.2811 C.ar    1  UNL1        0.0200
     17 C         137.9819  140.3060  160.1918 C.ar    1  UNL1        0.1019
     18 N         138.5475  139.4073  159.1322 N.ar    1  UNL1       -0.2076
     19 C         140.0001  139.0346  159.1620 C.ar    1  UNL1        0.2598
     20 C         140.8872  139.5605  160.2513 C.ar    1  UNL1        0.1879
     21 O         140.5657  138.1359  158.1025 O.3     1  UNL1       -0.4541
     22 C         141.2663  138.7257  156.9146 C.3     1  UNL1        0.2543
     23 O         142.3398  139.1877  160.2811 O.3     1  UNL1       -0.4670
     24 C         142.7552  137.8263  160.7546 C.3     1  UNL1        0.2527
     25 C         142.4459  141.7584  162.0520 C.3     1  UNL1        0.1162
     26 O         143.2894  140.7001  162.6988 O.3     1  UNL1       -0.3820
     27 H         144.2256  140.9436  162.6260 H       1  UNL1        0.2107
     28 C         139.6870  144.5663  161.5478 C.ar    1  UNL1        0.2271
     29 C         140.5306  143.5080  162.1947 C.ar    1  UNL1        0.0559
     30 C         141.6023  142.8167  161.4051 C.ar    1  UNL1        0.0117
     31 C         141.8304  143.1836  159.9687 C.ar    1  UNL1        0.0559
     32 C         140.9868  144.2418  159.3219 C.ar    1  UNL1        0.2272
     33 N         139.9151  144.9332  160.1114 N.ar    1  UNL1       -0.1767
     34 O         141.2149  144.6087  157.8854 O.3     1  UNL1       -0.4561
     35 C         141.9560  145.8666  157.5412 C.3     1  UNL1        0.2542
     36 O         138.6153  145.2577  162.3375 O.3     1  UNL1       -0.4602
     37 C         137.9976  144.2577  164.6545 C.3     1  UNL1        0.0512
     38 C         137.6856  144.4576  163.2010 C.3     1  UNL1        0.2072
     39 C         143.6830  142.5318  161.7039 C.3     1  UNL1        0.0491
     40 C         144.6529  142.9196  162.7805 C.3     1  UNL1        0.0750
     41 N         144.1855  143.7257  163.9560 N.3     1  UNL1       -0.2702
     42 C         143.5590  145.0715  163.7411 C.3     1  UNL1        0.0897
     43 C         144.3448  143.1860  165.3465 C.3     1  UNL1        0.0897
@<TRIPOS>BOND
     1    37    38    1
     2    38    36    1
     3    36    28    1
     4    28    29   ar
     5    29    30   ar
     6    30    25    1
     7    25    26    1
     8    25    39    1
     9    39    40    1
    10    40    41    1
    11    41    42    1
    12    41    43    1
    13    25     1    1
    14     1     2    1
    15     2     3   ar
    16     3     4   ar
    17     4     5   ar
    18     5     6   ar
    19     6     7    1
    20     6     8   ar
    21     8     9   ar
    22     9    10   ar
    23    10    11   ar
    24    11    12   ar
    25    12    13    1
    26    13    14    1
    27     1    15    1
    28    15    16   ar
    29    16    17   ar
    30    17    18   ar
    31    18    19   ar
    32    19    21    1
    33    21    22    1
    34    19    20   ar
    35    20    23    1
    36    23    24    1
    37    30    31   ar
    38    31    32   ar
    39    32    34    1
    40    34    35    1
    41    32    33   ar
    42    33    28   ar
    43    12     2   ar
    44    20    15   ar
    45    10     4   ar
    46    26    27    1
@<TRIPOS>MOLECULE
*****
 43 46 0 0 0
SMALL
GASTEIGER

@<TRIPOS>ATOM
      1 C         141.6865  141.8392  162.6279 C.3     1  UNL1        0.0808
      2 C         142.0703  141.9537  164.0735 C.ar    1  UNL1        0.0375
      3 C         141.0636  141.6498  165.1431 C.ar    1  UNL1        0.0023
      4 C         141.4473  141.7643  166.5886 C.ar    1  UNL1        0.0181
      5 C         140.4405  141.4604  167.6582 C.ar    1  UNL1        0.0082
      6 C         140.8244  141.5749  169.1038 C.ar    1  UNL1        0.0347
      7 BR        139.8176  141.2710  170.1734 Br      1  UNL1       -0.0490
      8 C         142.2149  141.9933  169.4797 C.ar    1  UNL1        0.0082
      9 C         143.2216  142.2972  168.4101 C.ar    1  UNL1        0.0197
     10 C         142.8379  142.1827  166.9646 C.ar    1  UNL1        0.0844
     11 N         143.8447  142.4866  165.8950 N.ar    1  UNL1       -0.2119
     12 C         143.4608  142.3721  164.4494 C.ar    1  UNL1        0.2211
     13 O         144.4676  142.6760  163.3798 O.3     1  UNL1       -0.4563
     14 C         145.6929  141.8223  163.2387 C.3     1  UNL1        0.2542
     15 C         142.5359  141.0364  161.6877 C.ar    1  UNL1        0.0245
     16 C         142.7907  139.5838  161.9617 C.ar    1  UNL1        0.0200
     17 C         143.6401  138.7810  161.0215 C.ar    1  UNL1        0.1019
     18 N         144.2348  139.4307  159.8073 N.ar    1  UNL1       -0.2076
     19 C         143.9799  140.8833  159.5333 C.ar    1  UNL1        0.2598
     20 C         143.1305  141.6861  160.4735 C.ar    1  UNL1        0.1879
     21 O         144.5745  141.5331  158.3191 O.3     1  UNL1       -0.4541
     22 C         144.7870  140.7328  157.0684 C.3     1  UNL1        0.2543
     23 O         142.8757  143.1387  160.1995 O.3     1  UNL1       -0.4670
     24 C         142.0164  143.5435  159.0385 C.3     1  UNL1        0.2527
     25 C         140.4533  142.5275  162.1225 C.3     1  UNL1        0.1162
     26 O         141.0525  143.8575  162.4718 O.3     1  UNL1       -0.3820
     27 H         140.4298  144.5639  162.2390 H       1  UNL1        0.2107
     28 C         138.8831  138.9036  162.5114 C.ar    1  UNL1        0.2271
     29 C         139.4823  140.2336  162.8607 C.ar    1  UNL1        0.0559
     30 C         139.8541  141.1975  161.7732 C.ar    1  UNL1        0.0117
     31 C         139.6266  140.8314  160.3365 C.ar    1  UNL1        0.0559
     32 C         139.0274  139.5014  159.9872 C.ar    1  UNL1        0.2272
     33 N         138.6556  138.5375  161.0747 N.ar    1  UNL1       -0.1767
     34 O         138.8000  139.1354  158.5504 O.3     1  UNL1       -0.4561
     35 C         139.9281  138.5853  157.7290 C.3     1  UNL1        0.2542
     36 O         138.5113  137.9396  163.5989 O.3     1  UNL1       -0.4602
     37 C         138.2383  138.8487  166.0173 C.3     1  UNL1        0.0512
     38 C         139.0530  138.1274  164.9850 C.3     1  UNL1        0.2072
     39 C         139.2201  143.2158  161.6172 C.3     1  UNL1        0.0491
     40 C         138.4887  144.1859  162.4972 C.3     1  UNL1        0.0750
     41 N         138.3333  143.9002  163.9615 N.3     1  UNL1       -0.2702
     42 C         138.9354  144.8280  164.9747 C.3     1  UNL1        0.0897
     43 C         137.5759  142.6865  164.4126 C.3     1  UNL1        0.0897
@<TRIPOS>BOND
     1    37    38    1
     2    38    36    1
     3    36    28    1
     4    28    29   ar
     5    29    30   ar
     6    30    25    1
     7    25    26    1
     8    25    39    1
     9    39    40    1
    10    40    41    1
    11    41    42    1
    12    41    43    1
    13    25     1    1
    14     1     2    1
    15     2     3   ar
    16     3     4   ar
    17     4     5   ar
    18     5     6   ar
    19     6     7    1
    20     6     8   ar
    21     8     9   ar
    22     9    10   ar
    23    10    11   ar
    24    11    12   ar
    25    12    13    1
    26    13    14    1
    27     1    15    1
    28    15    16   ar
    29    16    17   ar
    30    17    18   ar
    31    18    19   ar
    32    19    21    1
    33    21    22    1
    34    19    20   ar
    35    20    23    1
    36    23    24    1
    37    30    31   ar
    38    31    32   ar
    39    32    34    1
    40    34    35    1
    41    32    33   ar
    42    33    28   ar
    43    12     2   ar
    44    20    15   ar
    45    10     4   ar
    46    26    27    1
@<TRIPOS>MOLECULE
*****
 43 46 0 0 0
SMALL
GASTEIGER

@<TRIPOS>ATOM
      1 C         140.8146  140.7137  163.0150 C.3     1  UNL1        0.0808
      2 C         140.5349  140.6074  164.4849 C.ar    1  UNL1        0.0375
      3 C         140.6979  141.8088  165.3682 C.ar    1  UNL1        0.0023
      4 C         140.4182  141.7025  166.8380 C.ar    1  UNL1        0.0181
      5 C         140.5812  142.9039  167.7213 C.ar    1  UNL1        0.0082
      6 C         140.3015  142.7976  169.1912 C.ar    1  UNL1        0.0347
      7 BR        140.4645  143.9989  170.0744 Br      1  UNL1       -0.0490
      8 C         139.8588  141.4900  169.7777 C.ar    1  UNL1        0.0082
      9 C         139.6958  140.2886  168.8945 C.ar    1  UNL1        0.0197
     10 C         139.9755  140.3948  167.4247 C.ar    1  UNL1        0.0844
     11 N         139.8125  139.1935  166.5414 N.ar    1  UNL1       -0.2119
     12 C         140.0922  139.2998  165.0715 C.ar    1  UNL1        0.2211
     13 O         139.9292  138.0984  164.1882 O.3     1  UNL1       -0.4563
     14 C         140.9431  136.9938  164.2299 C.3     1  UNL1        0.2542
     15 C         141.8813  139.8634  162.3911 C.ar    1  UNL1        0.0245
     16 C         143.2465  139.7993  163.0093 C.ar    1  UNL1        0.0200
     17 C         144.3131  138.9490  162.3854 C.ar    1  UNL1        0.1019
     18 N         144.0146  138.1628  161.1433 N.ar    1  UNL1       -0.2076
     19 C         142.6494  138.2269  160.5251 C.ar    1  UNL1        0.2598
     20 C         141.5827  139.0773  161.1491 C.ar    1  UNL1        0.1879
     21 O         142.3508  137.4408  159.2831 O.3     1  UNL1       -0.4541
     22 C         142.4618  138.0939  157.9373 C.3     1  UNL1        0.2543
     23 O         140.2175  139.1414  160.5309 O.3     1  UNL1       -0.4670
     24 C         139.2045  138.0785  160.8379 C.3     1  UNL1        0.2527
     25 C         140.0277  141.6703  162.1691 C.3     1  UNL1        0.1162
     26 O         138.7541  141.0103  162.6075 O.3     1  UNL1       -0.3820
     27 H         137.9997  141.4513  162.1863 H       1  UNL1        0.2107
     28 C         143.3660  143.8143  162.2645 C.ar    1  UNL1        0.2271
     29 C         142.0924  143.1543  162.7029 C.ar    1  UNL1        0.0559
     30 C         141.3013  142.3303  161.7307 C.ar    1  UNL1        0.0117
     31 C         141.7840  142.1664  160.3200 C.ar    1  UNL1        0.0559
     32 C         143.0576  142.8265  159.8815 C.ar    1  UNL1        0.2272
     33 N         143.8486  143.6504  160.8538 N.ar    1  UNL1       -0.1767
     34 O         143.5402  142.6625  158.4707 O.3     1  UNL1       -0.4561
     35 C         145.0088  142.5432  158.1895 C.3     1  UNL1        0.2542
     36 O         144.1570  144.6383  163.2369 O.3     1  UNL1       -0.4602
     37 C         144.4945  143.3472  165.4660 C.3     1  UNL1        0.0512
     38 C         143.9092  144.5030  164.7101 C.3     1  UNL1        0.2072
     39 C         139.2408  142.6269  161.3232 C.3     1  UNL1        0.0491
     40 C         138.3345  143.6310  161.9718 C.3     1  UNL1        0.0750
     41 N         138.9157  144.7633  162.7655 N.3     1  UNL1       -0.2702
     42 C         139.5976  145.8995  162.0627 C.3     1  UNL1        0.0897
     43 C         138.8151  144.7593  164.2622 C.3     1  UNL1        0.0897
@<TRIPOS>BOND
     1    37    38    1
     2    38    36    1
     3    36    28    1
     4    28    29   ar
     5    29    30   ar
     6    30    25    1
     7    25    26    1
     8    25    39    1
     9    39    40    1
    10    40    41    1
    11    41    42    1
    12    41    43    1
    13    25     1    1
    14     1     2    1
    15     2     3   ar
    16     3     4   ar
    17     4     5   ar
    18     5     6   ar
    19     6     7    1
    20     6     8   ar
    21     8     9   ar
    22     9    10   ar
    23    10    11   ar
    24    11    12   ar
    25    12    13    1
    26    13    14    1
    27     1    15    1
    28    15    16   ar
    29    16    17   ar
    30    17    18   ar
    31    18    19   ar
    32    19    21    1
    33    21    22    1
    34    19    20   ar
    35    20    23    1
    36    23    24    1
    37    30    31   ar
    38    31    32   ar
    39    32    34    1
    40    34    35    1
    41    32    33   ar
    42    33    28   ar
    43    12     2   ar
    44    20    15   ar
    45    10     4   ar
    46    26    27    1
@<TRIPOS>MOLECULE
*****
 43 46 0 0 0
SMALL
GASTEIGER

@<TRIPOS>ATOM
      1 C         141.6445  140.9951  163.6824 C.3     1  UNL1        0.0808
      2 C         141.8232  140.7973  165.1586 C.ar    1  UNL1        0.0375
      3 C         140.9963  141.5901  166.1270 C.ar    1  UNL1        0.0023
      4 C         141.1750  141.3924  167.6031 C.ar    1  UNL1        0.0181
      5 C         140.3481  142.1852  168.5715 C.ar    1  UNL1        0.0082
      6 C         140.5267  141.9875  170.0476 C.ar    1  UNL1        0.0347
      7 BR        139.6998  142.7803  171.0160 Br      1  UNL1       -0.0490
      8 C         141.5323  140.9970  170.5554 C.ar    1  UNL1        0.0082
      9 C         142.3592  140.2042  169.5870 C.ar    1  UNL1        0.0197
     10 C         142.1805  140.4019  168.1109 C.ar    1  UNL1        0.0844
     11 N         143.0074  139.6091  167.1425 N.ar    1  UNL1       -0.2119
     12 C         142.8287  139.8069  165.6663 C.ar    1  UNL1        0.2211
     13 O         143.6556  139.0141  164.6980 O.3     1  UNL1       -0.4563
     14 C         145.0295  139.4854  164.3236 C.3     1  UNL1        0.2542
     15 C         142.5064  141.9786  162.9477 C.ar    1  UNL1        0.0245
     16 C         142.5789  143.4039  163.4095 C.ar    1  UNL1        0.0200
     17 C         143.4408  144.3874  162.6748 C.ar    1  UNL1        0.1019
     18 N         144.2302  143.9456  161.4782 N.ar    1  UNL1       -0.2076
     19 C         144.1577  142.5203  161.0164 C.ar    1  UNL1        0.2598
     20 C         143.2958  141.5367  161.7512 C.ar    1  UNL1        0.1879
     21 O         144.9471  142.0785  159.8199 O.3     1  UNL1       -0.4541
     22 C         144.5860  142.5842  158.4548 C.3     1  UNL1        0.2543
     23 O         143.2233  140.1114  161.2894 O.3     1  UNL1       -0.4670
     24 C         142.5961  139.7825  159.9671 C.3     1  UNL1        0.2527
     25 C         140.6039  140.2092  162.9410 C.3     1  UNL1        0.1162
     26 O         141.3240  138.9374  163.2784 O.3     1  UNL1       -0.3820
     27 H         140.8448  138.1841  162.8991 H       1  UNL1        0.2107
     28 C         139.1229  143.2380  160.8475 C.ar    1  UNL1        0.2271
     29 C         139.8430  141.9662  161.1849 C.ar    1  UNL1        0.0559
     30 C         139.8838  141.4811  162.6036 C.ar    1  UNL1        0.0117
     31 C         139.2046  142.2679  163.6851 C.ar    1  UNL1        0.0559
     32 C         138.4845  143.5398  163.3477 C.ar    1  UNL1        0.2272
     33 N         138.4436  144.0248  161.9289 N.ar    1  UNL1       -0.1767
     34 O         137.8052  144.3266  164.4292 O.3     1  UNL1       -0.4561
     35 C         138.6143  144.9285  165.5397 C.3     1  UNL1        0.2542
     36 O         139.0820  143.7231  159.4286 O.3     1  UNL1       -0.4602
     37 C         141.1698  145.2049  159.8709 C.3     1  UNL1        0.0512
     38 C         140.1371  144.6640  158.9270 C.3     1  UNL1        0.2072
     39 C         139.5634  139.4234  162.1996 C.3     1  UNL1        0.0491
     40 C         138.4720  138.7244  162.9549 C.3     1  UNL1        0.0750
     41 N         138.6022  138.5096  164.4337 N.3     1  UNL1       -0.2702
     42 C         138.0943  139.5476  165.3899 C.3     1  UNL1        0.0897
     43 C         139.2404  137.2567  164.9563 C.3     1  UNL1        0.0897
@<TRIPOS>BOND
     1    37    38    1
     2    38    36    1
     3    36    28    1
     4    28    29   ar
     5    29    30   ar
     6    30    25    1
     7    25    26    1
     8    25    39    1
     9    39    40    1
    10    40    41    1
    11    41    42    1
    12    41    43    1
    13    25     1    1
    14     1     2    1
    15     2     3   ar
    16     3     4   ar
    17     4     5   ar
    18     5     6   ar
    19     6     7    1
    20     6     8   ar
    21     8     9   ar
    22     9    10   ar
    23    10    11   ar
    24    11    12   ar
    25    12    13    1
    26    13    14    1
    27     1    15    1
    28    15    16   ar
    29    16    17   ar
    30    17    18   ar
    31    18    19   ar
    32    19    21    1
    33    21    22    1
    34    19    20   ar
    35    20    23    1
    36    23    24    1
    37    30    31   ar
    38    31    32   ar
    39    32    34    1
    40    34    35    1
    41    32    33   ar
    42    33    28   ar
    43    12     2   ar
    44    20    15   ar
    45    10     4   ar
    46    26    27    1
@<TRIPOS>MOLECULE
*****
 43 46 0 0 0
SMALL
GASTEIGER

@<TRIPOS>ATOM
      1 C         141.3004  141.0053  162.7818 C.3     1  UNL1        0.0808
      2 C         141.3308  140.7054  164.2513 C.ar    1  UNL1        0.0375
      3 C         140.9541  141.7673  165.2414 C.ar    1  UNL1        0.0023
      4 C         140.9845  141.4675  166.7108 C.ar    1  UNL1        0.0181
      5 C         140.6078  142.5294  167.7009 C.ar    1  UNL1        0.0082
      6 C         140.6382  142.2295  169.1704 C.ar    1  UNL1        0.0347
      7 BR        140.2615  143.2914  170.1605 Br      1  UNL1       -0.0490
      8 C         141.0453  140.8677  169.6496 C.ar    1  UNL1        0.0082
      9 C         141.4219  139.8057  168.6595 C.ar    1  UNL1        0.0197
     10 C         141.3916  140.1056  167.1901 C.ar    1  UNL1        0.0844
     11 N         141.7682  139.0436  166.2000 N.ar    1  UNL1       -0.2119
     12 C         141.7378  139.3436  164.7305 C.ar    1  UNL1        0.2211
     13 O         142.1145  138.2816  163.7404 O.3     1  UNL1       -0.4563
     14 C         141.1557  137.1703  163.4314 C.3     1  UNL1        0.2542
     15 C         140.2050  140.4443  161.9244 C.ar    1  UNL1        0.0245
     16 C         138.7705  140.7251  162.2612 C.ar    1  UNL1        0.0200
     17 C         137.6751  140.1641  161.4037 C.ar    1  UNL1        0.1019
     18 N         138.0142  139.3223  160.2093 N.ar    1  UNL1       -0.2076
     19 C         139.4486  139.0415  159.8725 C.ar    1  UNL1        0.2598
     20 C         140.5441  139.6026  160.7301 C.ar    1  UNL1        0.1879
     21 O         139.7877  138.1997  158.6782 O.3     1  UNL1       -0.4541
     22 C         139.6223  138.7580  157.2959 C.3     1  UNL1        0.2543
     23 O         141.9786  139.3218  160.3932 O.3     1  UNL1       -0.4670
     24 C         142.5962  139.9359  159.1719 C.3     1  UNL1        0.2527
     25 C         142.3655  141.8663  162.1700 C.3     1  UNL1        0.1162
     26 O         143.3927  140.8198  162.4855 O.3     1  UNL1       -0.3820
     27 H         144.2635  141.1191  162.1805 H       1  UNL1        0.2107
     28 C         140.0064  144.3048  160.1113 C.ar    1  UNL1        0.2271
     29 C         141.0336  143.2583  160.4269 C.ar    1  UNL1        0.0559
     30 C         141.3382  142.9128  161.8544 C.ar    1  UNL1        0.0117
     31 C         140.6156  143.6138  162.9663 C.ar    1  UNL1        0.0559
     32 C         139.5884  144.6603  162.6507 C.ar    1  UNL1        0.2272
     33 N         139.2837  145.0058  161.2232 N.ar    1  UNL1       -0.1767
     34 O         138.8657  145.3613  163.7627 O.3     1  UNL1       -0.4561
     35 C         138.8205  144.7487  165.1311 C.3     1  UNL1        0.2542
     36 O         139.7017  144.6502  158.6837 O.3     1  UNL1       -0.4602
     37 C         140.0106  146.3965  156.7850 C.3     1  UNL1        0.0512
     38 C         140.5671  145.6301  157.9481 C.3     1  UNL1        0.2072
     39 C         143.4306  142.7272  161.5581 C.3     1  UNL1        0.0491
     40 C         144.5416  143.2651  162.4103 C.3     1  UNL1        0.0750
     41 N         144.2439  143.8050  163.7778 N.3     1  UNL1       -0.2702
     42 C         143.6786  145.1857  163.9322 C.3     1  UNL1        0.0897
     43 C         144.5115  142.9641  164.9907 C.3     1  UNL1        0.0897
@<TRIPOS>BOND
     1    37    38    1
     2    38    36    1
     3    36    28    1
     4    28    29   ar
     5    29    30   ar
     6    30    25    1
     7    25    26    1
     8    25    39    1
     9    39    40    1
    10    40    41    1
    11    41    42    1
    12    41    43    1
    13    25     1    1
    14     1     2    1
    15     2     3   ar
    16     3     4   ar
    17     4     5   ar
    18     5     6   ar
    19     6     7    1
    20     6     8   ar
    21     8     9   ar
    22     9    10   ar
    23    10    11   ar
    24    11    12   ar
    25    12    13    1
    26    13    14    1
    27     1    15    1
    28    15    16   ar
    29    16    17   ar
    30    17    18   ar
    31    18    19   ar
    32    19    21    1
    33    21    22    1
    34    19    20   ar
    35    20    23    1
    36    23    24    1
    37    30    31   ar
    38    31    32   ar
    39    32    34    1
    40    34    35    1
    41    32    33   ar
    42    33    28   ar
    43    12     2   ar
    44    20    15   ar
    45    10     4   ar
    46    26    27    1
@<TRIPOS>MOLECULE
*****
 43 46 0 0 0
SMALL
GASTEIGER

@<TRIPOS>ATOM
      1 C         140.4863  141.2702  161.6700 C.3     1  UNL1        0.0808
      2 C         140.2082  140.8912  163.0945 C.ar    1  UNL1        0.0375
      3 C         141.2253  141.1779  164.1591 C.ar    1  UNL1        0.0023
      4 C         140.9473  140.7989  165.5835 C.ar    1  UNL1        0.0181
      5 C         141.9644  141.0856  166.6481 C.ar    1  UNL1        0.0082
      6 C         141.6864  140.7066  168.0726 C.ar    1  UNL1        0.0347
      7 BR        142.7035  140.9932  169.1372 Br      1  UNL1       -0.0490
      8 C         140.3912  140.0410  168.4325 C.ar    1  UNL1        0.0082
      9 C         139.3741  139.7544  167.3679 C.ar    1  UNL1        0.0197
     10 C         139.6521  140.1333  165.9435 C.ar    1  UNL1        0.0844
     11 N         138.6350  139.8467  164.8789 N.ar    1  UNL1       -0.2119
     12 C         138.9131  140.2257  163.4544 C.ar    1  UNL1        0.2211
     13 O         137.8959  139.9390  162.3898 O.3     1  UNL1       -0.4563
     14 C         137.7231  138.5409  161.8747 C.3     1  UNL1        0.2542
     15 C         140.8012  140.2078  160.6591 C.ar    1  UNL1        0.0245
     16 C         142.0214  139.3515  160.8262 C.ar    1  UNL1        0.0200
     17 C         142.3363  138.2891  159.8153 C.ar    1  UNL1        0.1019
     18 N         141.4310  138.0829  158.6371 N.ar    1  UNL1       -0.2076
     19 C         140.2108  138.9392  158.4700 C.ar    1  UNL1        0.2598
     20 C         139.8959  140.0016  159.4810 C.ar    1  UNL1        0.1879
     21 O         139.3055  138.7330  157.2919 O.3     1  UNL1       -0.4541
     22 C         139.5631  137.6059  156.3363 C.3     1  UNL1        0.2543
     23 O         138.6757  140.8579  159.3139 O.3     1  UNL1       -0.4670
     24 C         138.6285  141.8927  158.2289 C.3     1  UNL1        0.2527
     25 C         140.4495  142.7116  161.2566 C.3     1  UNL1        0.1162
     26 O         138.9873  142.7688  161.5864 O.3     1  UNL1       -0.3820
     27 H         138.6496  143.6600  161.4054 H       1  UNL1        0.2107
     28 C         144.3858  142.4629  161.6959 C.ar    1  UNL1        0.2271
     29 C         142.9237  142.5201  162.0257 C.ar    1  UNL1        0.0559
     30 C         141.9116  142.6544  160.9268 C.ar    1  UNL1        0.0117
     31 C         142.3618  142.7314  159.4980 C.ar    1  UNL1        0.0559
     32 C         143.8240  142.6742  159.1682 C.ar    1  UNL1        0.2272
     33 N         144.8360  142.5399  160.2672 N.ar    1  UNL1       -0.1767
     34 O         144.2741  142.7513  157.7394 O.3     1  UNL1       -0.4561
     35 C         145.6366  142.2558  157.3546 C.3     1  UNL1        0.2542
     36 O         145.3979  142.3286  162.7950 O.3     1  UNL1       -0.4602
     37 C         144.8875  140.0300  163.8930 C.3     1  UNL1        0.0512
     38 C         145.0789  141.5128  164.0127 C.3     1  UNL1        0.2072
     39 C         140.4126  144.1530  160.8431 C.3     1  UNL1        0.0491
     40 C         139.9206  145.1961  161.8023 C.3     1  UNL1        0.0750
     41 N         140.3144  145.1307  163.2483 N.3     1  UNL1       -0.2702
     42 C         139.2860  144.8093  164.2918 C.3     1  UNL1        0.0897
     43 C         141.7366  145.3867  163.6505 C.3     1  UNL1        0.0897
@<TRIPOS>BOND
     1    37    38    1
     2    38    36    1
     3    36    28    1
     4    28    29   ar
     5    29    30   ar
     6    30    25    1
     7    25    26    1
     8    25    39    1
     9    39    40    1
    10    40    41    1
    11    41    42    1
    12    41    43    1
    13    25     1    1
    14     1     2    1
    15     2     3   ar
    16     3     4   ar
    17     4     5   ar
    18     5     6   ar
    19     6     7    1
    20     6     8   ar
    21     8     9   ar
    22     9    10   ar
    23    10    11   ar
    24    11    12   ar
    25    12    13    1
    26    13    14    1
    27     1    15    1
    28    15    16   ar
    29    16    17   ar
    30    17    18   ar
    31    18    19   ar
    32    19    21    1
    33    21    22    1
    34    19    20   ar
    35    20    23    1
    36    23    24    1
    37    30    31   ar
    38    31    32   ar
    39    32    34    1
    40    34    35    1
    41    32    33   ar
    42    33    28   ar
    43    12     2   ar
    44    20    15   ar
    45    10     4   ar
    46    26    27    1
@<TRIPOS>MOLECULE
*****
 43 46 0 0 0
SMALL
GASTEIGER

@<TRIPOS>ATOM
      1 C         141.6262  140.8052  162.8540 C.3     1  UNL1        0.0808
      2 C         142.0856  141.1923  164.2285 C.ar    1  UNL1        0.0375
      3 C         141.0826  141.5926  165.2695 C.ar    1  UNL1        0.0023
      4 C         141.5419  141.9796  166.6440 C.ar    1  UNL1        0.0181
      5 C         140.5389  142.3799  167.6850 C.ar    1  UNL1        0.0082
      6 C         140.9983  142.7670  169.0595 C.ar    1  UNL1        0.0347
      7 BR        139.9953  143.1673  170.1005 Br      1  UNL1       -0.0490
      8 C         142.4607  142.7537  169.3930 C.ar    1  UNL1        0.0082
      9 C         143.4637  142.3534  168.3520 C.ar    1  UNL1        0.0197
     10 C         143.0044  141.9663  166.9775 C.ar    1  UNL1        0.0844
     11 N         144.0074  141.5660  165.9365 N.ar    1  UNL1       -0.2119
     12 C         143.5480  141.1790  164.5620 C.ar    1  UNL1        0.2211
     13 O         144.5510  140.7787  163.5210 O.3     1  UNL1       -0.4563
     14 C         145.7082  141.6804  163.2086 C.3     1  UNL1        0.2542
     15 C         142.3409  141.3365  161.6471 C.ar    1  UNL1        0.0245
     16 C         142.4912  142.8166  161.4555 C.ar    1  UNL1        0.0200
     17 C         143.2060  143.3478  160.2485 C.ar    1  UNL1        0.1019
     18 N         143.7705  142.3990  159.2330 N.ar    1  UNL1       -0.2076
     19 C         143.6202  140.9189  159.4246 C.ar    1  UNL1        0.2598
     20 C         142.9054  140.3876  160.6317 C.ar    1  UNL1        0.1879
     21 O         144.1846  139.9700  158.4092 O.3     1  UNL1       -0.4541
     22 C         143.2778  139.3132  157.4111 C.3     1  UNL1        0.2543
     23 O         142.7551  138.9075  160.8233 O.3     1  UNL1       -0.4670
     24 C         143.9252  138.0878  161.2805 C.3     1  UNL1        0.2527
     25 C         140.4520  139.8869  162.6866 C.3     1  UNL1        0.1162
     26 O         141.2251  138.7795  163.3393 O.3     1  UNL1       -0.3820
     27 H         140.6759  137.9809  163.3779 H       1  UNL1        0.2107
     28 C         138.4870  143.2980  162.1835 C.ar    1  UNL1        0.2271
     29 C         139.2601  142.1905  162.8361 C.ar    1  UNL1        0.0559
     30 C         139.6790  140.9943  162.0339 C.ar    1  UNL1        0.0117
     31 C         139.3248  140.9056  160.5791 C.ar    1  UNL1        0.0559
     32 C         138.5518  142.0130  159.9264 C.ar    1  UNL1        0.2272
     33 N         138.1329  143.2092  160.7286 N.ar    1  UNL1       -0.1767
     34 O         138.1977  141.9242  158.4715 O.3     1  UNL1       -0.4561
     35 C         138.2573  140.6027  157.7644 C.3     1  UNL1        0.2542
     36 O         138.0681  144.4942  162.9858 O.3     1  UNL1       -0.4602
     37 C         138.5736  144.8388  165.5108 C.3     1  UNL1        0.0512
     38 C         138.9595  145.0181  164.0724 C.3     1  UNL1        0.2072
     39 C         139.2779  138.9686  162.5192 C.3     1  UNL1        0.0491
     40 C         138.1781  138.9636  163.5393 C.3     1  UNL1        0.0750
     41 N         138.4732  138.5771  164.9583 N.3     1  UNL1       -0.2702
     42 C         138.3013  139.5802  166.0602 C.3     1  UNL1        0.0897
     43 C         138.9402  137.1873  165.2754 C.3     1  UNL1        0.0897
@<TRIPOS>BOND
     1    37    38    1
     2    38    36    1
     3    36    28    1
     4    28    29   ar
     5    29    30   ar
     6    30    25    1
     7    25    26    1
     8    25    39    1
     9    39    40    1
    10    40    41    1
    11    41    42    1
    12    41    43    1
    13    25     1    1
    14     1     2    1
    15     2     3   ar
    16     3     4   ar
    17     4     5   ar
    18     5     6   ar
    19     6     7    1
    20     6     8   ar
    21     8     9   ar
    22     9    10   ar
    23    10    11   ar
    24    11    12   ar
    25    12    13    1
    26    13    14    1
    27     1    15    1
    28    15    16   ar
    29    16    17   ar
    30    17    18   ar
    31    18    19   ar
    32    19    21    1
    33    21    22    1
    34    19    20   ar
    35    20    23    1
    36    23    24    1
    37    30    31   ar
    38    31    32   ar
    39    32    34    1
    40    34    35    1
    41    32    33   ar
    42    33    28   ar
    43    12     2   ar
    44    20    15   ar
    45    10     4   ar
    46    26    27    1
@<TRIPOS>MOLECULE
*****
 43 46 0 0 0
SMALL
GASTEIGER

@<TRIPOS>ATOM
      1 C         141.4971  140.5987  161.2236 C.3     1  UNL1        0.0808
      2 C         141.8339  140.2432  162.6415 C.ar    1  UNL1        0.0375
      3 C         141.5638  141.2230  163.7448 C.ar    1  UNL1        0.0023
      4 C         141.9006  140.8675  165.1625 C.ar    1  UNL1        0.0181
      5 C         141.6305  141.8473  166.2658 C.ar    1  UNL1        0.0082
      6 C         141.9673  141.4918  167.6837 C.ar    1  UNL1        0.0347
      7 BR        141.6972  142.4715  168.7869 Br      1  UNL1       -0.0490
      8 C         142.5742  140.1566  167.9982 C.ar    1  UNL1        0.0082
      9 C         142.8443  139.1769  166.8949 C.ar    1  UNL1        0.0197
     10 C         142.5075  139.5323  165.4771 C.ar    1  UNL1        0.0844
     11 N         142.7776  138.5526  164.3739 N.ar    1  UNL1       -0.2119
     12 C         142.4408  138.9081  162.9560 C.ar    1  UNL1        0.2211
     13 O         142.7109  137.9284  161.8528 O.3     1  UNL1       -0.4563
     14 C         144.1094  137.7369  161.3454 C.3     1  UNL1        0.2542
     15 C         142.5821  141.0229  160.2788 C.ar    1  UNL1        0.0245
     16 C         143.3788  142.2624  160.5594 C.ar    1  UNL1        0.0200
     17 C         144.4638  142.6866  159.6146 C.ar    1  UNL1        0.1019
     18 N         144.7521  141.8711  158.3889 N.ar    1  UNL1       -0.2076
     19 C         143.9554  140.6316  158.1083 C.ar    1  UNL1        0.2598
     20 C         142.8703  140.2075  159.0532 C.ar    1  UNL1        0.1879
     21 O         144.2436  139.8162  156.8827 O.3     1  UNL1       -0.4541
     22 C         144.0340  140.4092  155.5210 C.3     1  UNL1        0.2543
     23 O         142.0736  138.9680  158.7725 O.3     1  UNL1       -0.4670
     24 C         141.1074  138.9412  157.6254 C.3     1  UNL1        0.2527
     25 C         140.0752  140.5301  160.7507 C.3     1  UNL1        0.1162
     26 O         140.0849  139.0418  160.9378 O.3     1  UNL1       -0.3820
     27 H         139.2201  138.6792  160.6898 H       1  UNL1        0.2107
     28 C         140.0505  144.4127  161.5719 C.ar    1  UNL1        0.2271
     29 C         140.0601  142.9245  161.7590 C.ar    1  UNL1        0.0559
     30 C         140.0656  142.0183  160.5637 C.ar    1  UNL1        0.0117
     31 C         140.0614  142.6005  159.1813 C.ar    1  UNL1        0.0559
     32 C         140.0517  144.0887  158.9942 C.ar    1  UNL1        0.2272
     33 N         140.0463  144.9949  160.1895 N.ar    1  UNL1       -0.1767
     34 O         140.0475  144.6709  157.6117 O.3     1  UNL1       -0.4561
     35 C         140.1165  146.1574  157.4237 C.3     1  UNL1        0.2542
     36 O         140.0450  145.3189  162.7674 O.3     1  UNL1       -0.4602
     37 C         138.9158  144.6474  165.0088 C.3     1  UNL1        0.0512
     38 C         140.1406  144.7398  164.1478 C.3     1  UNL1        0.2072
     39 C         138.6534  140.4614  160.2778 C.3     1  UNL1        0.0491
     40 C         137.5710  140.0191  161.2175 C.3     1  UNL1        0.0750
     41 N         137.6917  140.3000  162.6860 N.3     1  UNL1       -0.2702
     42 C         138.2940  139.2735  163.5989 C.3     1  UNL1        0.0897
     43 C         137.2101  141.6075  163.2416 C.3     1  UNL1        0.0897
@<TRIPOS>BOND
     1    37    38    1
     2    38    36    1
     3    36    28    1
     4    28    29   ar
     5    29    30   ar
     6    30    25    1
     7    25    26    1
     8    25    39    1
     9    39    40    1
    10    40    41    1
    11    41    42    1
    12    41    43    1
    13    25     1    1
    14     1     2    1
    15     2     3   ar
    16     3     4   ar
    17     4     5   ar
    18     5     6   ar
    19     6     7    1
    20     6     8   ar
    21     8     9   ar
    22     9    10   ar
    23    10    11   ar
    24    11    12   ar
    25    12    13    1
    26    13    14    1
    27     1    15    1
    28    15    16   ar
    29    16    17   ar
    30    17    18   ar
    31    18    19   ar
    32    19    21    1
    33    21    22    1
    34    19    20   ar
    35    20    23    1
    36    23    24    1
    37    30    31   ar
    38    31    32   ar
    39    32    34    1
    40    34    35    1
    41    32    33   ar
    42    33    28   ar
    43    12     2   ar
    44    20    15   ar
    45    10     4   ar
    46    26    27    1
@<TRIPOS>MOLECULE
*****
 43 46 0 0 0
SMALL
GASTEIGER

@<TRIPOS>ATOM
      1 C         141.9618  141.2331  162.5664 C.3     1  UNL1        0.0808
      2 C         142.1927  141.5437  164.0157 C.ar    1  UNL1        0.0375
      3 C         141.1441  141.2020  165.0323 C.ar    1  UNL1        0.0023
      4 C         141.3750  141.5127  166.4815 C.ar    1  UNL1        0.0181
      5 C         140.3264  141.1710  167.4981 C.ar    1  UNL1        0.0082
      6 C         140.5573  141.4816  168.9474 C.ar    1  UNL1        0.0347
      7 BR        139.5087  141.1399  169.9640 Br      1  UNL1       -0.0490
      8 C         141.8369  142.1340  169.3799 C.ar    1  UNL1        0.0082
      9 C         142.8855  142.4757  168.3632 C.ar    1  UNL1        0.0197
     10 C         142.6546  142.1651  166.9141 C.ar    1  UNL1        0.0844
     11 N         143.7033  142.5068  165.8974 N.ar    1  UNL1       -0.2119
     12 C         143.4723  142.1961  164.4482 C.ar    1  UNL1        0.2211
     13 O         144.5209  142.5378  163.4315 O.3     1  UNL1       -0.4563
     14 C         145.7479  141.6845  163.3037 C.3     1  UNL1        0.2542
     15 C         142.0097  142.3322  161.5469 C.ar    1  UNL1        0.0245
     16 C         141.1319  143.5385  161.7026 C.ar    1  UNL1        0.0200
     17 C         141.1799  144.6377  160.6831 C.ar    1  UNL1        0.1019
     18 N         142.1057  144.5305  159.5076 N.ar    1  UNL1       -0.2076
     19 C         142.9834  143.3242  159.3519 C.ar    1  UNL1        0.2598
     20 C         142.9354  142.2250  160.3715 C.ar    1  UNL1        0.1879
     21 O         143.9092  143.2170  158.1765 O.3     1  UNL1       -0.4541
     22 C         143.3534  142.9830  156.8031 C.3     1  UNL1        0.2543
     23 O         143.8132  141.0187  160.2157 O.3     1  UNL1       -0.4670
     24 C         143.5546  140.0410  159.1078 C.3     1  UNL1        0.2527
     25 C         141.6829  139.8232  162.1368 C.3     1  UNL1        0.1162
     26 O         143.0588  139.4175  162.5752 O.3     1  UNL1       -0.3820
     27 H         143.1853  138.4704  162.4078 H       1  UNL1        0.2107
     28 C         138.5050  140.4257  159.8372 C.ar    1  UNL1        0.2271
     29 C         139.8810  140.0200  160.2755 C.ar    1  UNL1        0.0559
     30 C         140.3069  140.2290  161.6985 C.ar    1  UNL1        0.0117
     31 C         139.3569  140.8438  162.6831 C.ar    1  UNL1        0.0559
     32 C         137.9810  141.2495  162.2447 C.ar    1  UNL1        0.2272
     33 N         137.5550  141.0405  160.8218 N.ar    1  UNL1       -0.1767
     34 O         137.0310  141.8644  163.2294 O.3     1  UNL1       -0.4561
     35 C         137.5515  142.7569  164.3168 C.3     1  UNL1        0.2542
     36 O         138.0791  140.2167  158.4142 O.3     1  UNL1       -0.4602
     37 C         138.7974  142.6450  157.8334 C.3     1  UNL1        0.0512
     38 C         138.2993  141.2985  157.3987 C.3     1  UNL1        0.2072
     39 C         141.4040  138.4134  161.7073 C.3     1  UNL1        0.0491
     40 C         141.3668  137.3125  162.7255 C.3     1  UNL1        0.0750
     41 N         141.0062  137.6192  164.1488 N.3     1  UNL1       -0.2702
     42 C         139.5659  137.7561  164.5448 C.3     1  UNL1        0.0897
     43 C         142.0859  137.7891  165.1762 C.3     1  UNL1        0.0897
@<TRIPOS>BOND
     1    37    38    1
     2    38    36    1
     3    36    28    1
     4    28    29   ar
     5    29    30   ar
     6    30    25    1
     7    25    26    1
     8    25    39    1
     9    39    40    1
    10    40    41    1
    11    41    42    1
    12    41    43    1
    13    25     1    1
    14     1     2    1
    15     2     3   ar
    16     3     4   ar
    17     4     5   ar
    18     5     6   ar
    19     6     7    1
    20     6     8   ar
    21     8     9   ar
    22     9    10   ar
    23    10    11   ar
    24    11    12   ar
    25    12    13    1
    26    13    14    1
    27     1    15    1
    28    15    16   ar
    29    16    17   ar
    30    17    18   ar
    31    18    19   ar
    32    19    21    1
    33    21    22    1
    34    19    20   ar
    35    20    23    1
    36    23    24    1
    37    30    31   ar
    38    31    32   ar
    39    32    34    1
    40    34    35    1
    41    32    33   ar
    42    33    28   ar
    43    12     2   ar
    44    20    15   ar
    45    10     4   ar
    46    26    27    1
