@<TRIPOS>MOLECULE
*****
 36 40 0 0 0
SMALL
GASTEIGER

@<TRIPOS>ATOM
      1 C         137.8195  142.9551  163.0105 C.3     1  UNL1        0.1429
      2 O         137.5630  144.3292  162.4665 O.3     1  UNL1       -0.3818
      3 C         137.8494  142.5592  161.5641 C.3     1  UNL1        0.1713
      4 O         138.1069  141.0832  161.4928 O.3     1  UNL1       -0.3497
      5 C         138.2361  140.5669  162.8952 C.3     1  UNL1        0.1614
      6 C         138.4752  139.3356  163.7178 C.3     1  UNL1        0.1143
      7 C         138.4453  139.7316  165.1643 C.3     1  UNL1        0.1604
      8 O         138.1878  141.2077  165.2356 O.3     1  UNL1       -0.3497
      9 C         138.0585  141.7239  163.8332 C.3     1  UNL1        0.1703
     10 H         137.5425  144.2947  161.4973 H       1  UNL1        0.2104
     11 N         138.7039  137.9514  163.1873 N.3     1  UNL1       -0.2908
     12 H         137.9258  137.7436  162.5614 H       1  UNL1        0.1237
     13 C         139.9619  137.6354  162.4339 C.3     1  UNL1        0.0957
     14 C         141.2776  138.1749  162.9112 C.ar    1  UNL1       -0.0055
     15 C         142.1726  138.9163  161.9628 C.ar    1  UNL1       -0.0020
     16 C         143.4883  139.4558  162.4401 C.ar    1  UNL1        0.0120
     17 C         143.9090  139.2541  163.8658 C.ar    1  UNL1        0.0682
     18 CL        145.2247  139.7937  164.3431 Cl      1  UNL1       -0.0814
     19 C         143.0139  138.5128  164.8141 C.ar    1  UNL1        0.0679
     20 CL        143.4345  138.3110  166.2397 Cl      1  UNL1       -0.0814
     21 C         141.6982  137.9732  164.3367 C.ar    1  UNL1        0.0093
     22 C         137.7360  143.6383  164.3433 C.3     1  UNL1        0.0367
     23 C         138.7806  144.6392  164.7398 C.3     1  UNL1        0.0328
     24 C         141.1889  142.0183  167.4931 C.ar    1  UNL1        0.2250
     25 C         142.6349  141.7499  167.1985 C.ar    1  UNL1        0.0593
     26 C         143.2782  142.3550  165.9861 C.ar    1  UNL1        0.0254
     27 C         142.4755  143.2287  165.0683 C.ar    1  UNL1        0.0990
     28 N         143.1188  143.8338  163.8559 N.ar    1  UNL1       -0.2400
     29 C         142.3161  144.7074  162.9381 C.ar    1  UNL1        0.1281
     30 C         140.8700  144.9759  163.2327 C.ar    1  UNL1        0.1566
     31 F         140.0672  145.8496  162.3150 F       1  UNL1       -0.2028
     32 C         140.2267  144.3708  164.4451 C.ar    1  UNL1        0.0261
     33 C         141.0295  143.4971  165.3630 C.ar    1  UNL1        0.1002
     34 N         140.3862  142.8919  166.5754 N.ar    1  UNL1       -0.2104
     35 C         139.6006  140.2580  168.5554 C.3     1  UNL1        0.2542
     36 O         140.5456  141.4131  168.7055 O.3     1  UNL1       -0.4561
@<TRIPOS>BOND
     1    35    36    1
     2    36    24    1
     3    24    25   ar
     4    25    26   ar
     5    26    27   ar
     6    27    28   ar
     7    28    29   ar
     8    29    30   ar
     9    30    31    1
    10    30    32   ar
    11    32    23    1
    12    23    22    1
    13    22     1    1
    14     1     2    1
    15     1     3    1
    16     3     4    1
    17     5     4    1
    18     5     6    1
    19     6    11    1
    20    11    13    1
    21    13    14    1
    22    14    15   ar
    23    15    16   ar
    24    16    17   ar
    25    17    18    1
    26    17    19   ar
    27    19    20    1
    28    19    21   ar
    29     6     7    1
    30     7     8    1
    31     9     8    1
    32    32    33   ar
    33    33    34   ar
    34    34    24   ar
    35    33    27   ar
    36     9     1    1
    37     9     5    1
    38    21    14   ar
    39     2    10    1
    40    11    12    1
@<TRIPOS>MOLECULE
*****
 36 40 0 0 0
SMALL
GASTEIGER

@<TRIPOS>ATOM
      1 C         140.3940  137.7775  163.2685 C.3     1  UNL1        0.1429
      2 O         141.3041  136.6773  162.8090 O.3     1  UNL1       -0.3818
      3 C         140.0355  137.8741  161.8152 C.3     1  UNL1        0.1713
      4 O         139.0185  138.9658  161.6602 O.3     1  UNL1       -0.3497
      5 C         138.7484  139.5439  163.0177 C.3     1  UNL1        0.1614
      6 C         137.9530  140.5758  163.7609 C.3     1  UNL1        0.1143
      7 C         138.3115  140.4793  165.2142 C.3     1  UNL1        0.1604
      8 O         139.3286  139.3876  165.3692 O.3     1  UNL1       -0.3497
      9 C         139.5986  138.8095  164.0117 C.3     1  UNL1        0.1703
     10 H         141.2222  136.5699  161.8485 H       1  UNL1        0.2104
     11 N         136.9714  141.5358  163.1569 N.3     1  UNL1       -0.2908
     12 H         136.3269  141.8046  163.9003 H       1  UNL1        0.1237
     13 C         137.4571  142.8064  162.5245 C.3     1  UNL1        0.0957
     14 C         138.8098  143.3503  162.8773 C.ar    1  UNL1       -0.0055
     15 C         138.9906  144.1573  164.1288 C.ar    1  UNL1       -0.0020
     16 C         140.3432  144.7012  164.4815 C.ar    1  UNL1        0.0120
     17 C         141.5151  144.4382  163.5828 C.ar    1  UNL1        0.0682
     18 CL        142.8678  144.9821  163.9355 Cl      1  UNL1       -0.0814
     19 C         141.3343  143.6313  162.3313 C.ar    1  UNL1        0.0679
     20 CL        142.5061  143.3683  161.4326 Cl      1  UNL1       -0.0814
     21 C         139.9815  143.0873  161.9786 C.ar    1  UNL1        0.0093
     22 C         140.9427  137.4510  164.6257 C.3     1  UNL1        0.0367
     23 C         142.4005  137.6555  164.9144 C.3     1  UNL1        0.0328
     24 C         142.1207  140.9690  167.9463 C.ar    1  UNL1        0.2250
     25 C         142.7614  142.2964  167.6678 C.ar    1  UNL1        0.0593
     26 C         143.4954  142.5192  166.3788 C.ar    1  UNL1        0.0254
     27 C         143.5886  141.4148  165.3682 C.ar    1  UNL1        0.0990
     28 N         144.3226  141.6376  164.0791 N.ar    1  UNL1       -0.2400
     29 C         144.4158  140.5332  163.0685 C.ar    1  UNL1        0.1281
     30 C         143.7751  139.2057  163.3469 C.ar    1  UNL1        0.1566
     31 F         143.8684  138.1012  162.3363 F       1  UNL1       -0.2028
     32 C         143.0412  138.9828  164.6360 C.ar    1  UNL1        0.0261
     33 C         142.9479  140.0874  165.6466 C.ar    1  UNL1        0.1002
     34 N         142.2140  139.8645  166.9357 N.ar    1  UNL1       -0.2104
     35 C         141.6128  139.4874  170.0191 C.3     1  UNL1        0.2542
     36 O         141.3867  140.7461  169.2353 O.3     1  UNL1       -0.4561
@<TRIPOS>BOND
     1    35    36    1
     2    36    24    1
     3    24    25   ar
     4    25    26   ar
     5    26    27   ar
     6    27    28   ar
     7    28    29   ar
     8    29    30   ar
     9    30    31    1
    10    30    32   ar
    11    32    23    1
    12    23    22    1
    13    22     1    1
    14     1     2    1
    15     1     3    1
    16     3     4    1
    17     5     4    1
    18     5     6    1
    19     6    11    1
    20    11    13    1
    21    13    14    1
    22    14    15   ar
    23    15    16   ar
    24    16    17   ar
    25    17    18    1
    26    17    19   ar
    27    19    20    1
    28    19    21   ar
    29     6     7    1
    30     7     8    1
    31     9     8    1
    32    32    33   ar
    33    33    34   ar
    34    34    24   ar
    35    33    27   ar
    36     9     1    1
    37     9     5    1
    38    21    14   ar
    39     2    10    1
    40    11    12    1
@<TRIPOS>MOLECULE
*****
 36 40 0 0 0
SMALL
GASTEIGER

@<TRIPOS>ATOM
      1 C         137.9005  142.2491  162.8707 C.3     1  UNL1        0.1429
      2 O         136.7217  141.3495  163.0973 O.3     1  UNL1       -0.3818
      3 C         137.7753  142.5219  164.3404 C.3     1  UNL1        0.1713
      4 O         138.8513  143.4937  164.7247 O.3     1  UNL1       -0.3497
      5 C         139.6416  143.8215  163.4926 C.3     1  UNL1        0.1614
      6 C         140.7949  144.6246  162.9686 C.3     1  UNL1        0.1143
      7 C         140.9201  144.3518  161.4990 C.3     1  UNL1        0.1604
      8 O         139.8440  143.3800  161.1146 O.3     1  UNL1       -0.3497
      9 C         139.0539  143.0522  162.3468 C.3     1  UNL1        0.1703
     10 H         136.4664  141.3805  164.0326 H       1  UNL1        0.2104
     11 N         141.6696  145.5400  163.7730 N.3     1  UNL1       -0.2908
     12 H         141.2843  145.5610  164.7172 H       1  UNL1        0.1237
     13 C         143.1347  145.2488  163.9097 C.3     1  UNL1        0.0957
     14 C         143.6113  143.8301  164.0098 C.ar    1  UNL1       -0.0055
     15 C         144.5969  143.2978  163.0120 C.ar    1  UNL1       -0.0020
     16 C         145.0734  141.8791  163.1121 C.ar    1  UNL1        0.0120
     17 C         144.5645  140.9925  164.2099 C.ar    1  UNL1        0.0682
     18 CL        145.0411  139.5738  164.3100 Cl      1  UNL1       -0.0814
     19 C         143.5790  141.5248  165.2076 C.ar    1  UNL1        0.0679
     20 CL        143.0701  140.6383  166.3054 Cl      1  UNL1       -0.0814
     21 C         143.1024  142.9436  165.1075 C.ar    1  UNL1        0.0093
     22 C         137.7792  141.7882  161.4485 C.3     1  UNL1        0.0367
     23 C         137.7581  140.3215  161.1345 C.3     1  UNL1        0.0328
     24 C         138.9991  138.0062  164.7882 C.ar    1  UNL1        0.2250
     25 C         140.2779  137.2223  164.7807 C.ar    1  UNL1        0.0593
     26 C         141.1431  137.2102  163.5555 C.ar    1  UNL1        0.0254
     27 C         140.7295  137.9820  162.3376 C.ar    1  UNL1        0.0990
     28 N         141.5946  137.9699  161.1123 N.ar    1  UNL1       -0.2400
     29 C         141.1810  138.7416  159.8945 C.ar    1  UNL1        0.1281
     30 C         139.9021  139.5255  159.9018 C.ar    1  UNL1        0.1566
     31 F         139.4885  140.2973  158.6840 F       1  UNL1       -0.2028
     32 C         139.0369  139.5377  161.1271 C.ar    1  UNL1        0.0261
     33 C         139.4506  138.7658  162.3450 C.ar    1  UNL1        0.1002
     34 N         138.5855  138.7780  163.5703 N.ar    1  UNL1       -0.2104
     35 C         138.3106  139.0921  167.0457 C.3     1  UNL1        0.2542
     36 O         138.1339  138.0183  166.0134 O.3     1  UNL1       -0.4561
@<TRIPOS>BOND
     1    35    36    1
     2    36    24    1
     3    24    25   ar
     4    25    26   ar
     5    26    27   ar
     6    27    28   ar
     7    28    29   ar
     8    29    30   ar
     9    30    31    1
    10    30    32   ar
    11    32    23    1
    12    23    22    1
    13    22     1    1
    14     1     2    1
    15     1     3    1
    16     3     4    1
    17     5     4    1
    18     5     6    1
    19     6    11    1
    20    11    13    1
    21    13    14    1
    22    14    15   ar
    23    15    16   ar
    24    16    17   ar
    25    17    18    1
    26    17    19   ar
    27    19    20    1
    28    19    21   ar
    29     6     7    1
    30     7     8    1
    31     9     8    1
    32    32    33   ar
    33    33    34   ar
    34    34    24   ar
    35    33    27   ar
    36     9     1    1
    37     9     5    1
    38    21    14   ar
    39     2    10    1
    40    11    12    1
@<TRIPOS>MOLECULE
*****
 36 40 0 0 0
SMALL
GASTEIGER

@<TRIPOS>ATOM
      1 C         138.0697  143.1481  163.0353 C.3     1  UNL1        0.1429
      2 O         137.9402  144.5745  162.5898 O.3     1  UNL1       -0.3818
      3 C         138.0949  142.8558  161.5642 C.3     1  UNL1        0.1713
      4 O         138.2291  141.3722  161.3887 O.3     1  UNL1       -0.3497
      5 C         138.2867  140.7475  162.7511 C.3     1  UNL1        0.1614
      6 C         138.4052  139.4445  163.4847 C.3     1  UNL1        0.1143
      7 C         138.3800  139.7368  164.9557 C.3     1  UNL1        0.1604
      8 O         138.2458  141.2204  165.1313 O.3     1  UNL1       -0.3497
      9 C         138.1882  141.8451  163.7688 C.3     1  UNL1        0.1703
     10 H         137.9361  144.6115  161.6205 H       1  UNL1        0.2104
     11 N         138.5275  138.0875  162.8574 N.3     1  UNL1       -0.2908
     12 H         138.5508  138.2308  161.8478 H       1  UNL1        0.1237
     13 C         139.6934  137.2067  163.1967 C.3     1  UNL1        0.0957
     14 C         141.0440  137.8116  163.4414 C.ar    1  UNL1       -0.0055
     15 C         141.8180  138.4044  162.3013 C.ar    1  UNL1       -0.0020
     16 C         143.1686  139.0092  162.5460 C.ar    1  UNL1        0.0120
     17 C         143.7454  139.0212  163.9307 C.ar    1  UNL1        0.0682
     18 CL        145.0961  139.6260  164.1754 Cl      1  UNL1       -0.0814
     19 C         142.9715  138.4284  165.0706 C.ar    1  UNL1        0.0679
     20 CL        143.5482  138.4404  166.4553 Cl      1  UNL1       -0.0814
     21 C         141.6207  137.8236  164.8259 C.ar    1  UNL1        0.0093
     22 C         138.0174  143.7385  164.4131 C.3     1  UNL1        0.0367
     23 C         139.2156  144.4478  164.9712 C.3     1  UNL1        0.0328
     24 C         142.1958  144.2965  161.6030 C.ar    1  UNL1        0.2250
     25 C         143.4897  143.5584  161.7790 C.ar    1  UNL1        0.0593
     26 C         143.7901  142.8706  163.0777 C.ar    1  UNL1        0.0254
     27 C         142.7968  142.9211  164.2004 C.ar    1  UNL1        0.0990
     28 N         143.0972  142.2333  165.4992 N.ar    1  UNL1       -0.2400
     29 C         142.1039  142.2837  166.6219 C.ar    1  UNL1        0.1281
     30 C         140.8099  143.0219  166.4460 C.ar    1  UNL1        0.1566
     31 F         139.8165  143.0723  167.5687 F       1  UNL1       -0.2028
     32 C         140.5094  143.7096  165.1472 C.ar    1  UNL1        0.0261
     33 C         141.5029  143.6592  164.0244 C.ar    1  UNL1        0.1002
     34 N         141.2024  144.3469  162.7257 N.ar    1  UNL1       -0.2104
     35 C         140.4898  145.3973  159.9819 C.3     1  UNL1        0.2542
     36 O         141.8953  144.9842  160.3042 O.3     1  UNL1       -0.4561
@<TRIPOS>BOND
     1    35    36    1
     2    36    24    1
     3    24    25   ar
     4    25    26   ar
     5    26    27   ar
     6    27    28   ar
     7    28    29   ar
     8    29    30   ar
     9    30    31    1
    10    30    32   ar
    11    32    23    1
    12    23    22    1
    13    22     1    1
    14     1     2    1
    15     1     3    1
    16     3     4    1
    17     5     4    1
    18     5     6    1
    19     6    11    1
    20    11    13    1
    21    13    14    1
    22    14    15   ar
    23    15    16   ar
    24    16    17   ar
    25    17    18    1
    26    17    19   ar
    27    19    20    1
    28    19    21   ar
    29     6     7    1
    30     7     8    1
    31     9     8    1
    32    32    33   ar
    33    33    34   ar
    34    34    24   ar
    35    33    27   ar
    36     9     1    1
    37     9     5    1
    38    21    14   ar
    39     2    10    1
    40    11    12    1
@<TRIPOS>MOLECULE
*****
 36 40 0 0 0
SMALL
GASTEIGER

@<TRIPOS>ATOM
      1 C         140.4321  145.0492  162.4856 C.3     1  UNL1        0.1429
      2 O         139.1271  145.6237  162.0198 O.3     1  UNL1       -0.3818
      3 C         140.7402  144.9698  161.0197 C.3     1  UNL1        0.1713
      4 O         142.1141  144.3880  160.8657 O.3     1  UNL1       -0.3497
      5 C         142.6552  144.1078  162.2364 C.3     1  UNL1        0.1614
      6 C         143.8387  143.5751  162.9883 C.3     1  UNL1        0.1143
      7 C         143.5307  143.6545  164.4542 C.3     1  UNL1        0.1604
      8 O         142.1566  144.2364  164.6082 O.3     1  UNL1       -0.3497
      9 C         141.6156  144.5165  163.2375 C.3     1  UNL1        0.1703
     10 H         139.1183  145.6620  161.0506 H       1  UNL1        0.2104
     11 N         145.1076  143.0543  162.3810 N.3     1  UNL1       -0.2908
     12 H         145.8572  143.6739  162.6887 H       1  UNL1        0.1237
     13 C         145.5577  141.6531  162.6707 C.3     1  UNL1        0.0957
     14 C         144.5517  140.6033  163.0390 C.ar    1  UNL1       -0.0055
     15 C         143.5601  140.1245  162.0203 C.ar    1  UNL1       -0.0020
     16 C         142.5541  139.0746  162.3887 C.ar    1  UNL1        0.0120
     17 C         142.5396  138.5035  163.7757 C.ar    1  UNL1        0.0682
     18 CL        141.5335  137.4537  164.1441 Cl      1  UNL1       -0.0814
     19 C         143.5311  138.9823  164.7943 C.ar    1  UNL1        0.0679
     20 CL        143.5166  138.4113  166.1813 Cl      1  UNL1       -0.0814
     21 C         144.5372  140.0322  164.4259 C.ar    1  UNL1        0.0093
     22 C         139.8512  145.2487  163.8540 C.3     1  UNL1        0.0367
     23 C         138.6492  144.4595  164.2810 C.3     1  UNL1        0.0328
     24 C         140.6249  142.1228  167.5804 C.ar    1  UNL1        0.2250
     25 C         140.6533  140.6241  167.5249 C.ar    1  UNL1        0.0593
     26 C         140.0231  139.9043  166.3696 C.ar    1  UNL1        0.0254
     27 C         139.3645  140.6832  165.2698 C.ar    1  UNL1        0.0990
     28 N         138.7343  139.9634  164.1145 N.ar    1  UNL1       -0.2400
     29 C         138.0758  140.7422  163.0147 C.ar    1  UNL1        0.1281
     30 C         138.0474  142.2410  163.0702 C.ar    1  UNL1        0.1566
     31 F         137.3888  143.0199  161.9704 F       1  UNL1       -0.2028
     32 C         138.6775  142.9608  164.2255 C.ar    1  UNL1        0.0261
     33 C         139.3361  142.1818  165.3253 C.ar    1  UNL1        0.1002
     34 N         139.9663  142.9017  166.4806 N.ar    1  UNL1       -0.2104
     35 C         140.4057  143.6587  169.6643 C.3     1  UNL1        0.2542
     36 O         141.2551  142.8426  168.7357 O.3     1  UNL1       -0.4561
@<TRIPOS>BOND
     1    35    36    1
     2    36    24    1
     3    24    25   ar
     4    25    26   ar
     5    26    27   ar
     6    27    28   ar
     7    28    29   ar
     8    29    30   ar
     9    30    31    1
    10    30    32   ar
    11    32    23    1
    12    23    22    1
    13    22     1    1
    14     1     2    1
    15     1     3    1
    16     3     4    1
    17     5     4    1
    18     5     6    1
    19     6    11    1
    20    11    13    1
    21    13    14    1
    22    14    15   ar
    23    15    16   ar
    24    16    17   ar
    25    17    18    1
    26    17    19   ar
    27    19    20    1
    28    19    21   ar
    29     6     7    1
    30     7     8    1
    31     9     8    1
    32    32    33   ar
    33    33    34   ar
    34    34    24   ar
    35    33    27   ar
    36     9     1    1
    37     9     5    1
    38    21    14   ar
    39     2    10    1
    40    11    12    1
@<TRIPOS>MOLECULE
*****
 36 40 0 0 0
SMALL
GASTEIGER

@<TRIPOS>ATOM
      1 C         143.2774  142.7787  161.4717 C.3     1  UNL1        0.1429
      2 O         144.3586  141.8810  160.9470 O.3     1  UNL1       -0.3818
      3 C         142.3993  142.0098  160.5296 C.3     1  UNL1        0.1713
      4 O         141.0063  142.5538  160.6461 O.3     1  UNL1       -0.3497
      5 C         141.0235  143.6589  161.6602 C.3     1  UNL1        0.1614
      6 C         140.1732  144.6781  162.3589 C.3     1  UNL1        0.1143
      7 C         141.0513  145.4469  163.3011 C.3     1  UNL1        0.1604
      8 O         142.4444  144.9029  163.1846 O.3     1  UNL1       -0.3497
      9 C         142.4271  143.7979  162.1705 C.3     1  UNL1        0.1703
     10 H         143.9840  141.2737  160.2900 H       1  UNL1        0.2104
     11 N         138.7029  144.8910  162.1519 N.3     1  UNL1       -0.2908
     12 H         138.4967  144.6097  161.1934 H       1  UNL1        0.1237
     13 C         137.7121  144.1884  163.0320 C.3     1  UNL1        0.0957
     14 C         137.9341  142.7557  163.4164 C.ar    1  UNL1       -0.0055
     15 C         138.4001  142.4141  164.8008 C.ar    1  UNL1       -0.0020
     16 C         138.6222  140.9813  165.1852 C.ar    1  UNL1        0.0120
     17 C         138.3782  139.8900  164.1853 C.ar    1  UNL1        0.0682
     18 CL        138.6003  138.4572  164.5697 Cl      1  UNL1       -0.0814
     19 C         137.9123  140.2316  162.8011 C.ar    1  UNL1        0.0679
     20 CL        137.6683  139.1404  161.8012 Cl      1  UNL1       -0.0814
     21 C         137.6902  141.6645  162.4167 C.ar    1  UNL1        0.0093
     22 C         144.3816  143.3599  162.3042 C.3     1  UNL1        0.0367
     23 C         145.0371  142.5284  163.3668 C.3     1  UNL1        0.0328
     24 C         142.8612  138.5895  163.3861 C.ar    1  UNL1        0.2250
     25 C         142.0818  138.1692  164.5967 C.ar    1  UNL1        0.0593
     26 C         142.0276  139.0618  165.8010 C.ar    1  UNL1        0.0254
     27 C         142.7529  140.3748  165.7946 C.ar    1  UNL1        0.0990
     28 N         142.6987  141.2674  166.9989 N.ar    1  UNL1       -0.2400
     29 C         143.4240  142.5804  166.9924 C.ar    1  UNL1        0.1281
     30 C         144.2035  143.0008  165.7817 C.ar    1  UNL1        0.1566
     31 F         144.9287  144.3137  165.7753 F       1  UNL1       -0.2028
     32 C         144.2576  142.1081  164.5775 C.ar    1  UNL1        0.0261
     33 C         143.5323  140.7951  164.5839 C.ar    1  UNL1        0.1002
     34 N         143.5865  139.9024  163.3797 N.ar    1  UNL1       -0.2104
     35 C         143.9908  137.8885  161.1539 C.3     1  UNL1        0.2542
     36 O         142.9154  137.6968  162.1818 O.3     1  UNL1       -0.4561
@<TRIPOS>BOND
     1    35    36    1
     2    36    24    1
     3    24    25   ar
     4    25    26   ar
     5    26    27   ar
     6    27    28   ar
     7    28    29   ar
     8    29    30   ar
     9    30    31    1
    10    30    32   ar
    11    32    23    1
    12    23    22    1
    13    22     1    1
    14     1     2    1
    15     1     3    1
    16     3     4    1
    17     5     4    1
    18     5     6    1
    19     6    11    1
    20    11    13    1
    21    13    14    1
    22    14    15   ar
    23    15    16   ar
    24    16    17   ar
    25    17    18    1
    26    17    19   ar
    27    19    20    1
    28    19    21   ar
    29     6     7    1
    30     7     8    1
    31     9     8    1
    32    32    33   ar
    33    33    34   ar
    34    34    24   ar
    35    33    27   ar
    36     9     1    1
    37     9     5    1
    38    21    14   ar
    39     2    10    1
    40    11    12    1
@<TRIPOS>MOLECULE
*****
 36 40 0 0 0
SMALL
GASTEIGER

@<TRIPOS>ATOM
      1 C         138.1113  140.4206  160.4165 C.3     1  UNL1        0.1429
      2 O         138.2643  139.6166  159.1594 O.3     1  UNL1       -0.3818
      3 C         138.3933  141.5876  159.5172 C.3     1  UNL1        0.1713
      4 O         138.3622  142.8338  160.3516 O.3     1  UNL1       -0.3497
      5 C         138.0611  142.4370  161.7664 C.3     1  UNL1        0.1614
      6 C         137.8558  142.9619  163.1565 C.3     1  UNL1        0.1143
      7 C         137.5738  141.7949  164.0557 C.3     1  UNL1        0.1604
      8 O         137.6048  140.5487  163.2214 O.3     1  UNL1       -0.3497
      9 C         137.9060  140.9455  161.8065 C.3     1  UNL1        0.1703
     10 H         138.4604  140.2102  158.4178 H       1  UNL1        0.2104
     11 N         137.9210  144.4011  163.5741 N.3     1  UNL1       -0.2908
     12 H         136.9738  144.6752  163.8350 H       1  UNL1        0.1237
     13 C         138.8179  144.8145  164.7031 C.3     1  UNL1        0.0957
     14 C         140.2264  144.3027  164.7680 C.ar    1  UNL1       -0.0055
     15 C         140.5669  143.1568  165.6741 C.ar    1  UNL1       -0.0020
     16 C         141.9754  142.6450  165.7390 C.ar    1  UNL1        0.0120
     17 C         143.0434  143.2790  164.8979 C.ar    1  UNL1        0.0682
     18 CL        144.4519  142.7672  164.9628 Cl      1  UNL1       -0.0814
     19 C         142.7028  144.4249  163.9919 C.ar    1  UNL1        0.0679
     20 CL        143.7707  145.0591  163.1507 Cl      1  UNL1       -0.0814
     21 C         141.2942  144.9368  163.9269 C.ar    1  UNL1        0.0093
     22 C         137.8613  139.0856  161.0529 C.3     1  UNL1        0.0367
     23 C         138.9156  138.0199  160.9992 C.3     1  UNL1        0.0328
     24 C         143.1532  138.8875  159.7583 C.ar    1  UNL1        0.2250
     25 C         144.2524  138.8680  160.7788 C.ar    1  UNL1        0.0593
     26 C         143.9392  138.5592  162.2128 C.ar    1  UNL1        0.0254
     27 C         142.5267  138.2699  162.6264 C.ar    1  UNL1        0.0990
     28 N         142.2134  137.9611  164.0605 N.ar    1  UNL1       -0.2400
     29 C         140.8009  137.6719  164.4741 C.ar    1  UNL1        0.1281
     30 C         139.7015  137.6915  163.4537 C.ar    1  UNL1        0.1566
     31 F         138.2890  137.4023  163.8673 F       1  UNL1       -0.2028
     32 C         140.0148  138.0003  162.0196 C.ar    1  UNL1        0.0261
     33 C         141.4274  138.2895  161.6060 C.ar    1  UNL1        0.1002
     34 N         141.7407  138.5983  160.1720 N.ar    1  UNL1       -0.2104
     35 C         144.0876  140.5119  157.9587 C.3     1  UNL1        0.2542
     36 O         143.4665  139.1963  158.3243 O.3     1  UNL1       -0.4561
@<TRIPOS>BOND
     1    35    36    1
     2    36    24    1
     3    24    25   ar
     4    25    26   ar
     5    26    27   ar
     6    27    28   ar
     7    28    29   ar
     8    29    30   ar
     9    30    31    1
    10    30    32   ar
    11    32    23    1
    12    23    22    1
    13    22     1    1
    14     1     2    1
    15     1     3    1
    16     3     4    1
    17     5     4    1
    18     5     6    1
    19     6    11    1
    20    11    13    1
    21    13    14    1
    22    14    15   ar
    23    15    16   ar
    24    16    17   ar
    25    17    18    1
    26    17    19   ar
    27    19    20    1
    28    19    21   ar
    29     6     7    1
    30     7     8    1
    31     9     8    1
    32    32    33   ar
    33    33    34   ar
    34    34    24   ar
    35    33    27   ar
    36     9     1    1
    37     9     5    1
    38    21    14   ar
    39     2    10    1
    40    11    12    1
@<TRIPOS>MOLECULE
*****
 36 40 0 0 0
SMALL
GASTEIGER

@<TRIPOS>ATOM
      1 C         142.6373  144.3653  162.9630 C.3     1  UNL1        0.1429
      2 O         143.9758  144.8263  162.4670 O.3     1  UNL1       -0.3818
      3 C         142.2944  144.3014  161.5041 C.3     1  UNL1        0.1713
      4 O         140.8742  143.8344  161.3818 O.3     1  UNL1       -0.3497
      5 C         140.3394  143.6097  162.7651 C.3     1  UNL1        0.1614
      6 C         139.1312  143.1822  163.5444 C.3     1  UNL1        0.1143
      7 C         139.4741  143.2461  165.0032 C.3     1  UNL1        0.1604
      8 O         140.8943  143.7131  165.1256 O.3     1  UNL1       -0.3497
      9 C         141.4291  143.9378  163.7423 C.3     1  UNL1        0.1703
     10 H         143.9683  144.8570  161.4975 H       1  UNL1        0.2104
     11 N         137.8116  142.7642  162.9664 N.3     1  UNL1       -0.2908
     12 H         137.8857  142.8724  161.9548 H       1  UNL1        0.1237
     13 C         137.2876  141.3812  163.2166 C.3     1  UNL1        0.0957
     14 C         138.2406  140.2575  163.4980 C.ar    1  UNL1       -0.0055
     15 C         138.3509  139.6973  164.8851 C.ar    1  UNL1       -0.0020
     16 C         139.3039  138.5737  165.1665 C.ar    1  UNL1        0.0120
     17 C         140.1467  138.0103  164.0608 C.ar    1  UNL1        0.0682
     18 CL        141.0998  136.8866  164.3422 Cl      1  UNL1       -0.0814
     19 C         140.0364  138.5705  162.6738 C.ar    1  UNL1        0.0679
     20 CL        140.8791  138.0072  161.5681 Cl      1  UNL1       -0.0814
     21 C         139.0833  139.6942  162.3924 C.ar    1  UNL1        0.0093
     22 C         143.2600  144.5255  164.3181 C.3     1  UNL1        0.0367
     23 C         144.3760  143.6177  164.7429 C.3     1  UNL1        0.0328
     24 C         142.2751  141.3700  168.0268 C.ar    1  UNL1        0.2250
     25 C         142.1096  139.8823  167.9304 C.ar    1  UNL1        0.0593
     26 C         142.6445  139.1438  166.7393 C.ar    1  UNL1        0.0254
     27 C         143.3447  139.8930  165.6447 C.ar    1  UNL1        0.0990
     28 N         143.8796  139.1545  164.4536 N.ar    1  UNL1       -0.2400
     29 C         144.5799  139.9037  163.3590 C.ar    1  UNL1        0.1281
     30 C         144.7454  141.3915  163.4554 C.ar    1  UNL1        0.1566
     31 F         145.4457  142.1406  162.3608 F       1  UNL1       -0.2028
     32 C         144.2106  142.1300  164.6464 C.ar    1  UNL1        0.0261
     33 C         143.5102  141.3807  165.7411 C.ar    1  UNL1        0.1002
     34 N         142.9754  142.1192  166.9322 N.ar    1  UNL1       -0.2104
     35 C         140.6914  143.1653  169.0362 C.3     1  UNL1        0.2542
     36 O         141.7403  142.1085  169.2178 O.3     1  UNL1       -0.4561
@<TRIPOS>BOND
     1    35    36    1
     2    36    24    1
     3    24    25   ar
     4    25    26   ar
     5    26    27   ar
     6    27    28   ar
     7    28    29   ar
     8    29    30   ar
     9    30    31    1
    10    30    32   ar
    11    32    23    1
    12    23    22    1
    13    22     1    1
    14     1     2    1
    15     1     3    1
    16     3     4    1
    17     5     4    1
    18     5     6    1
    19     6    11    1
    20    11    13    1
    21    13    14    1
    22    14    15   ar
    23    15    16   ar
    24    16    17   ar
    25    17    18    1
    26    17    19   ar
    27    19    20    1
    28    19    21   ar
    29     6     7    1
    30     7     8    1
    31     9     8    1
    32    32    33   ar
    33    33    34   ar
    34    34    24   ar
    35    33    27   ar
    36     9     1    1
    37     9     5    1
    38    21    14   ar
    39     2    10    1
    40    11    12    1
@<TRIPOS>MOLECULE
*****
 36 40 0 0 0
SMALL
GASTEIGER

@<TRIPOS>ATOM
      1 C         138.9369  140.6202  165.9185 C.3     1  UNL1        0.1429
      2 O         139.2242  139.6268  167.0050 O.3     1  UNL1       -0.3818
      3 C         139.8243  141.5218  166.7246 C.3     1  UNL1        0.1713
      4 O         139.9125  142.8404  166.0153 O.3     1  UNL1       -0.3497
      5 C         139.0796  142.7539  164.7707 C.3     1  UNL1        0.1614
      6 C         138.6194  143.5155  163.5632 C.3     1  UNL1        0.1143
      7 C         137.7321  142.6139  162.7570 C.3     1  UNL1        0.1604
      8 O         137.6439  141.2952  163.4664 O.3     1  UNL1       -0.3497
      9 C         138.4767  141.3817  164.7109 C.3     1  UNL1        0.1703
     10 H         139.8117  140.0290  167.6638 H       1  UNL1        0.2104
     11 N         138.9827  144.9301  163.2216 N.3     1  UNL1       -0.2908
     12 H         139.0678  145.4337  164.1046 H       1  UNL1        0.1237
     13 C         140.2296  145.2160  162.4383 C.3     1  UNL1        0.0957
     14 C         141.4947  144.4703  162.7437 C.ar    1  UNL1       -0.0055
     15 C         142.2837  144.8048  163.9749 C.ar    1  UNL1       -0.0020
     16 C         143.5489  144.0590  164.2804 C.ar    1  UNL1        0.0120
     17 C         144.0251  142.9789  163.3548 C.ar    1  UNL1        0.0682
     18 CL        145.2902  142.2332  163.6602 Cl      1  UNL1       -0.0814
     19 C         143.2360  142.6446  162.1237 C.ar    1  UNL1        0.0679
     20 CL        143.7121  141.5645  161.1980 Cl      1  UNL1       -0.0814
     21 C         141.9708  143.3903  161.8182 C.ar    1  UNL1        0.0093
     22 C         138.1097  139.5110  165.3395 C.3     1  UNL1        0.0367
     23 C         138.7723  138.2558  164.8542 C.3     1  UNL1        0.0328
     24 C         143.0687  138.8045  166.0748 C.ar    1  UNL1        0.2250
     25 C         144.1417  138.8789  165.0294 C.ar    1  UNL1        0.0593
     26 C         143.7827  138.7705  163.5770 C.ar    1  UNL1        0.0254
     27 C         142.3506  138.5876  163.1702 C.ar    1  UNL1        0.0990
     28 N         141.9915  138.4792  161.7178 N.ar    1  UNL1       -0.2400
     29 C         140.5594  138.2963  161.3109 C.ar    1  UNL1        0.1281
     30 C         139.4863  138.2218  162.3564 C.ar    1  UNL1        0.1566
     31 F         138.0542  138.0390  161.9495 F       1  UNL1       -0.2028
     32 C         139.8453  138.3303  163.8087 C.ar    1  UNL1        0.0261
     33 C         141.2775  138.5132  164.2156 C.ar    1  UNL1        0.1002
     34 N         141.6366  138.6216  165.6680 N.ar    1  UNL1       -0.2104
     35 C         142.5944  139.7576  168.4448 C.3     1  UNL1        0.2542
     36 O         143.4278  138.9129  167.5272 O.3     1  UNL1       -0.4561
@<TRIPOS>BOND
     1    35    36    1
     2    36    24    1
     3    24    25   ar
     4    25    26   ar
     5    26    27   ar
     6    27    28   ar
     7    28    29   ar
     8    29    30   ar
     9    30    31    1
    10    30    32   ar
    11    32    23    1
    12    23    22    1
    13    22     1    1
    14     1     2    1
    15     1     3    1
    16     3     4    1
    17     5     4    1
    18     5     6    1
    19     6    11    1
    20    11    13    1
    21    13    14    1
    22    14    15   ar
    23    15    16   ar
    24    16    17   ar
    25    17    18    1
    26    17    19   ar
    27    19    20    1
    28    19    21   ar
    29     6     7    1
    30     7     8    1
    31     9     8    1
    32    32    33   ar
    33    33    34   ar
    34    34    24   ar
    35    33    27   ar
    36     9     1    1
    37     9     5    1
    38    21    14   ar
    39     2    10    1
    40    11    12    1
