@<TRIPOS>MOLECULE
*****
 37 41 0 0 0
SMALL
GASTEIGER

@<TRIPOS>ATOM
      1 C         140.5295  138.9135  160.5675 C.ar    1  UNL1        0.1664
      2 N         140.4367  140.3833  160.8525 N.ar    1  UNL1       -0.2120
      3 C         139.9032  140.8594  162.1711 C.ar    1  UNL1        0.1318
      4 C         139.4625  139.8656  163.2048 C.ar    1  UNL1        0.0491
      5 C         138.9291  140.3416  164.5234 C.ar    1  UNL1        0.0041
      6 C         138.4884  139.3479  165.5570 C.ar    1  UNL1        0.0002
      7 C         138.5812  137.8782  165.2720 C.ar    1  UNL1        0.0015
      8 C         139.1147  137.4022  163.9533 C.ar    1  UNL1        0.0192
      9 C         139.5554  138.3959  162.9197 C.ar    1  UNL1        0.0856
     10 N         140.0888  137.9198  161.6011 N.ar    1  UNL1       -0.2264
     11 C         142.5419  138.2865  159.0485 C.ar    1  UNL1        0.2053
     12 N         143.0754  137.8105  157.7299 N.ar    1  UNL1       -0.2244
     13 C         142.1299  137.4854  156.6116 C.ar    1  UNL1        0.1004
     14 C         140.6511  137.6364  156.8119 C.ar    1  UNL1        0.0209
     15 C         140.1176  138.1125  158.1306 C.ar    1  UNL1        0.0075
     16 C         141.0630  138.4375  159.2489 C.ar    1  UNL1        0.0725
     17 N         144.4327  138.9366  161.2851 N.3     1  UNL1       -0.2021
     18 S         143.4872  138.6115  160.1668 S.O2    1  UNL1        0.0739
     19 O         143.6372  140.0059  159.6348 O.2     1  UNL1       -0.1518
     20 O         143.3373  137.2171  160.6988 O.2     1  UNL1       -0.1518
     21 H         144.5509  138.1163  161.8797 H       1  UNL1        0.1443
     22 H         144.0538  139.7055  161.8380 H       1  UNL1        0.1443
     23 C         138.8363  141.8114  164.8084 C.ar    1  UNL1        0.0001
     24 C         139.9090  142.4896  165.6079 C.ar    1  UNL1        0.0000
     25 C         139.8162  143.9594  165.8929 C.ar    1  UNL1        0.0000
     26 C         138.6506  144.7510  165.3784 C.ar    1  UNL1        0.0000
     27 C         137.5778  144.0727  164.5788 C.ar    1  UNL1        0.0000
     28 C         137.6706  142.6030  164.2939 C.ar    1  UNL1        0.0000
     29 N         139.8104  142.3291  162.4562 N.pl3   1  UNL1       -0.3131
     30 H         139.0171  142.6930  162.9118 H       1  UNL1        0.1485
     31 C         140.9262  143.2444  162.0470 C.3     1  UNL1        0.1348
     32 C         142.0789  143.4837  162.9764 C.ar    1  UNL1        0.0788
     33 C         142.4644  144.8849  163.3478 C.ar    1  UNL1        0.0165
     34 C         143.6172  145.1243  164.2773 C.ar    1  UNL1        0.0029
     35 C         144.3845  143.9624  164.8352 C.ar    1  UNL1        0.0207
     36 C         143.9990  142.5612  164.4636 C.ar    1  UNL1        0.0985
     37 N         142.8463  142.3218  163.5343 N.ar    1  UNL1       -0.2464
@<TRIPOS>BOND
     1    17    18    1
     2    18    19    2
     3    18    20    2
     4    18    11    1
     5    11    12   ar
     6    12    13   ar
     7    13    14   ar
     8    14    15   ar
     9    15    16   ar
    10    16     1    1
    11     1     2   ar
    12     2     3   ar
    13     3    29    1
    14    29    31    1
    15    31    32    1
    16    32    33   ar
    17    33    34   ar
    18    34    35   ar
    19    35    36   ar
    20    36    37   ar
    21     3     4   ar
    22     4     5   ar
    23     5    23    1
    24    23    24   ar
    25    24    25   ar
    26    25    26   ar
    27    26    27   ar
    28    27    28   ar
    29     5     6   ar
    30     6     7   ar
    31     7     8   ar
    32     8     9   ar
    33     9    10   ar
    34    16    11   ar
    35    10     1   ar
    36    37    32   ar
    37     9     4   ar
    38    28    23   ar
    39    17    21    1
    40    17    22    1
    41    29    30    1
@<TRIPOS>MOLECULE
*****
 37 41 0 0 0
SMALL
GASTEIGER

@<TRIPOS>ATOM
      1 C         140.1062  141.4984  163.0793 C.ar    1  UNL1        0.1664
      2 N         141.0531  142.2091  164.0003 N.ar    1  UNL1       -0.2120
      3 C         141.0243  141.9226  165.4724 C.ar    1  UNL1        0.1318
      4 C         140.0486  140.9254  166.0235 C.ar    1  UNL1        0.0491
      5 C         140.0198  140.6389  167.4956 C.ar    1  UNL1        0.0041
      6 C         139.0441  139.6417  168.0466 C.ar    1  UNL1        0.0002
      7 C         138.0973  138.9310  167.1255 C.ar    1  UNL1        0.0015
      8 C         138.1261  139.2175  165.6534 C.ar    1  UNL1        0.0192
      9 C         139.1018  140.2147  165.1024 C.ar    1  UNL1        0.0856
     10 N         139.1306  140.5012  163.6303 N.ar    1  UNL1       -0.2264
     11 C         139.2456  142.8473  161.0323 C.ar    1  UNL1        0.2053
     12 N         139.2744  143.1338  159.5602 N.ar    1  UNL1       -0.2244
     13 C         140.1927  142.3580  158.6630 C.ar    1  UNL1        0.1004
     14 C         141.0821  141.2957  159.2378 C.ar    1  UNL1        0.0209
     15 C         141.0532  141.0092  160.7099 C.ar    1  UNL1        0.0075
     16 C         140.1350  141.7849  161.6072 C.ar    1  UNL1        0.0725
     17 N         137.4092  144.3989  162.8268 N.3     1  UNL1       -0.2021
     18 S         138.3274  143.6230  161.9295 S.O2    1  UNL1        0.0739
     19 O         139.2874  144.7755  161.9156 O.2     1  UNL1       -0.1518
     20 O         137.3674  142.4706  161.9435 O.2     1  UNL1       -0.1518
     21 H         136.5856  143.8359  163.0391 H       1  UNL1        0.1443
     22 H         137.1221  145.2583  162.3583 H       1  UNL1        0.1443
     23 C         140.9667  141.3496  168.4166 C.ar    1  UNL1        0.0001
     24 C         140.5958  142.6859  168.9882 C.ar    1  UNL1        0.0000
     25 C         141.5427  143.3967  169.9092 C.ar    1  UNL1        0.0000
     26 C         142.8605  142.7710  170.2587 C.ar    1  UNL1        0.0000
     27 C         143.2313  141.4346  169.6872 C.ar    1  UNL1        0.0000
     28 C         142.2844  140.7239  168.7661 C.ar    1  UNL1        0.0000
     29 N         141.9712  142.6333  166.3935 N.pl3   1  UNL1       -0.3131
     30 H         141.6224  143.1451  167.1588 H       1  UNL1        0.1485
     31 C         143.4495  142.5641  166.1486 C.3     1  UNL1        0.1348
     32 C         143.9719  142.4146  164.7506 C.ar    1  UNL1        0.0788
     33 C         144.4303  141.0730  164.2607 C.ar    1  UNL1        0.0165
     34 C         144.9528  140.9235  162.8626 C.ar    1  UNL1        0.0029
     35 C         145.0169  142.1155  161.9544 C.ar    1  UNL1        0.0207
     36 C         144.5584  143.4572  162.4443 C.ar    1  UNL1        0.0985
     37 N         144.0360  143.6067  163.8423 N.ar    1  UNL1       -0.2464
@<TRIPOS>BOND
     1    17    18    1
     2    18    19    2
     3    18    20    2
     4    18    11    1
     5    11    12   ar
     6    12    13   ar
     7    13    14   ar
     8    14    15   ar
     9    15    16   ar
    10    16     1    1
    11     1     2   ar
    12     2     3   ar
    13     3    29    1
    14    29    31    1
    15    31    32    1
    16    32    33   ar
    17    33    34   ar
    18    34    35   ar
    19    35    36   ar
    20    36    37   ar
    21     3     4   ar
    22     4     5   ar
    23     5    23    1
    24    23    24   ar
    25    24    25   ar
    26    25    26   ar
    27    26    27   ar
    28    27    28   ar
    29     5     6   ar
    30     6     7   ar
    31     7     8   ar
    32     8     9   ar
    33     9    10   ar
    34    16    11   ar
    35    10     1   ar
    36    37    32   ar
    37     9     4   ar
    38    28    23   ar
    39    17    21    1
    40    17    22    1
    41    29    30    1
@<TRIPOS>MOLECULE
*****
 37 41 0 0 0
SMALL
GASTEIGER

@<TRIPOS>ATOM
      1 C         140.7612  142.6043  162.5344 C.ar    1  UNL1        0.1664
      2 N         139.9231  142.0713  163.6585 N.ar    1  UNL1       -0.2120
      3 C         140.4867  142.0027  165.0469 C.ar    1  UNL1        0.1318
      4 C         141.8883  142.4672  165.3112 C.ar    1  UNL1        0.0491
      5 C         142.4519  142.3987  166.6997 C.ar    1  UNL1        0.0041
      6 C         143.8534  142.8631  166.9640 C.ar    1  UNL1        0.0002
      7 C         144.6914  143.3961  165.8399 C.ar    1  UNL1        0.0015
      8 C         144.1278  143.4647  164.4515 C.ar    1  UNL1        0.0192
      9 C         142.7263  143.0002  164.1871 C.ar    1  UNL1        0.0856
     10 N         142.1628  143.0688  162.7987 N.ar    1  UNL1       -0.2264
     11 C         139.8521  144.0016  160.5416 C.ar    1  UNL1        0.2053
     12 N         139.2885  144.0701  159.1532 N.ar    1  UNL1       -0.2244
     13 C         139.0706  142.8100  158.3691 C.ar    1  UNL1        0.1004
     14 C         139.4162  141.4814  158.9735 C.ar    1  UNL1        0.0209
     15 C         139.9797  141.4129  160.3619 C.ar    1  UNL1        0.0075
     16 C         140.1977  142.6729  161.1460 C.ar    1  UNL1        0.0725
     17 N         140.2880  146.5217  162.1097 N.3     1  UNL1       -0.2021
     18 S         140.0700  145.2616  161.3256 S.O2    1  UNL1        0.0739
     19 O         138.7516  145.0623  162.0125 O.2     1  UNL1       -0.1518
     20 O         141.3885  145.4610  160.6387 O.2     1  UNL1       -0.1518
     21 H         141.1826  146.9352  161.8470 H       1  UNL1        0.1443
     22 H         140.2929  146.3054  163.1065 H       1  UNL1        0.1443
     23 C         141.6138  141.8656  167.8238 C.ar    1  UNL1        0.0001
     24 C         141.7080  140.4190  168.2089 C.ar    1  UNL1        0.0000
     25 C         140.8699  139.8860  169.3330 C.ar    1  UNL1        0.0000
     26 C         139.9377  140.7996  170.0720 C.ar    1  UNL1        0.0000
     27 C         139.8435  142.2463  169.6868 C.ar    1  UNL1        0.0000
     28 C         140.6815  142.7793  168.5628 C.ar    1  UNL1        0.0000
     29 N         139.6487  141.4697  166.1710 N.pl3   1  UNL1       -0.3131
     30 H         139.5264  142.0030  166.9895 H       1  UNL1        0.1485
     31 C         138.9970  140.1242  166.0481 C.3     1  UNL1        0.1348
     32 C         139.5751  139.0924  165.1255 C.ar    1  UNL1        0.0788
     33 C         140.9058  138.4725  165.4333 C.ar    1  UNL1        0.0165
     34 C         141.4840  137.4407  164.5107 C.ar    1  UNL1        0.0029
     35 C         140.7313  137.0288  163.2803 C.ar    1  UNL1        0.0207
     36 C         139.4004  137.6487  162.9726 C.ar    1  UNL1        0.0985
     37 N         138.8224  138.6805  163.8951 N.ar    1  UNL1       -0.2464
@<TRIPOS>BOND
     1    17    18    1
     2    18    19    2
     3    18    20    2
     4    18    11    1
     5    11    12   ar
     6    12    13   ar
     7    13    14   ar
     8    14    15   ar
     9    15    16   ar
    10    16     1    1
    11     1     2   ar
    12     2     3   ar
    13     3    29    1
    14    29    31    1
    15    31    32    1
    16    32    33   ar
    17    33    34   ar
    18    34    35   ar
    19    35    36   ar
    20    36    37   ar
    21     3     4   ar
    22     4     5   ar
    23     5    23    1
    24    23    24   ar
    25    24    25   ar
    26    25    26   ar
    27    26    27   ar
    28    27    28   ar
    29     5     6   ar
    30     6     7   ar
    31     7     8   ar
    32     8     9   ar
    33     9    10   ar
    34    16    11   ar
    35    10     1   ar
    36    37    32   ar
    37     9     4   ar
    38    28    23   ar
    39    17    21    1
    40    17    22    1
    41    29    30    1
@<TRIPOS>MOLECULE
*****
 37 41 0 0 0
SMALL
GASTEIGER

@<TRIPOS>ATOM
      1 C         139.0495  142.4273  160.1089 C.ar    1  UNL1        0.1664
      2 N         140.4953  142.3898  160.5069 N.ar    1  UNL1       -0.2120
      3 C         140.9126  142.8746  161.8637 C.ar    1  UNL1        0.1318
      4 C         139.8841  143.3969  162.8225 C.ar    1  UNL1        0.0491
      5 C         140.3013  143.8817  164.1793 C.ar    1  UNL1        0.0041
      6 C         139.2729  144.4040  165.1381 C.ar    1  UNL1        0.0002
      7 C         137.8271  144.4415  164.7402 C.ar    1  UNL1        0.0015
      8 C         137.4099  143.9567  163.3834 C.ar    1  UNL1        0.0192
      9 C         138.4383  143.4344  162.4246 C.ar    1  UNL1        0.0856
     10 N         138.0211  142.9496  161.0678 N.ar    1  UNL1       -0.2264
     11 C         138.4369  140.4755  158.5072 C.ar    1  UNL1        0.2053
     12 N         138.0196  139.9907  157.1504 N.ar    1  UNL1       -0.2244
     13 C         137.7977  140.9729  156.0386 C.ar    1  UNL1        0.1004
     14 C         137.9931  142.4398  156.2836 C.ar    1  UNL1        0.0209
     15 C         138.4103  142.9246  157.6403 C.ar    1  UNL1        0.0075
     16 C         138.6322  141.9425  158.7522 C.ar    1  UNL1        0.0725
     17 N         138.8808  138.5113  160.7309 N.3     1  UNL1       -0.2021
     18 S         138.6588  139.4934  159.6191 S.O2    1  UNL1        0.0739
     19 O         140.0813  139.3154  159.1778 O.2     1  UNL1       -0.1518
     20 O         137.2363  139.6715  160.0603 O.2     1  UNL1       -0.1518
     21 H         138.0191  138.4028  161.2659 H       1  UNL1        0.1443
     22 H         139.6208  138.8533  161.3440 H       1  UNL1        0.1443
     23 C         141.7472  143.8441  164.5772 C.ar    1  UNL1        0.0001
     24 C         142.2409  142.7781  165.5098 C.ar    1  UNL1        0.0000
     25 C         143.6868  142.7406  165.9078 C.ar    1  UNL1        0.0000
     26 C         144.6387  143.7691  165.3730 C.ar    1  UNL1        0.0000
     27 C         144.1449  144.8351  164.4403 C.ar    1  UNL1        0.0000
     28 C         142.6991  144.8726  164.0425 C.ar    1  UNL1        0.0000
     29 N         142.3583  142.8370  162.2616 N.pl3   1  UNL1       -0.3131
     30 H         142.7655  143.6127  162.7109 H       1  UNL1        0.1485
     31 C         143.1838  141.6178  161.9750 C.3     1  UNL1        0.1348
     32 C         143.4524  140.6211  163.0633 C.ar    1  UNL1        0.0788
     33 C         144.8590  140.3704  163.5201 C.ar    1  UNL1        0.0165
     34 C         145.1277  139.3737  164.6085 C.ar    1  UNL1        0.0029
     35 C         143.9898  138.6277  165.2399 C.ar    1  UNL1        0.0207
     36 C         142.5832  138.8785  164.7830 C.ar    1  UNL1        0.0985
     37 N         142.3145  139.8751  163.6947 N.ar    1  UNL1       -0.2464
@<TRIPOS>BOND
     1    17    18    1
     2    18    19    2
     3    18    20    2
     4    18    11    1
     5    11    12   ar
     6    12    13   ar
     7    13    14   ar
     8    14    15   ar
     9    15    16   ar
    10    16     1    1
    11     1     2   ar
    12     2     3   ar
    13     3    29    1
    14    29    31    1
    15    31    32    1
    16    32    33   ar
    17    33    34   ar
    18    34    35   ar
    19    35    36   ar
    20    36    37   ar
    21     3     4   ar
    22     4     5   ar
    23     5    23    1
    24    23    24   ar
    25    24    25   ar
    26    25    26   ar
    27    26    27   ar
    28    27    28   ar
    29     5     6   ar
    30     6     7   ar
    31     7     8   ar
    32     8     9   ar
    33     9    10   ar
    34    16    11   ar
    35    10     1   ar
    36    37    32   ar
    37     9     4   ar
    38    28    23   ar
    39    17    21    1
    40    17    22    1
    41    29    30    1
@<TRIPOS>MOLECULE
*****
 37 41 0 0 0
SMALL
GASTEIGER

@<TRIPOS>ATOM
      1 C         140.3242  139.3519  163.5573 C.ar    1  UNL1        0.1664
      2 N         141.2724  140.2592  164.2839 N.ar    1  UNL1       -0.2120
      3 C         141.0741  140.5366  165.7446 C.ar    1  UNL1        0.1318
      4 C         139.9276  139.9067  166.4788 C.ar    1  UNL1        0.0491
      5 C         139.7293  140.1842  167.9395 C.ar    1  UNL1        0.0041
      6 C         138.5829  139.5544  168.6736 C.ar    1  UNL1        0.0002
      7 C         137.6348  138.6471  167.9471 C.ar    1  UNL1        0.0015
      8 C         137.8331  138.3696  166.4864 C.ar    1  UNL1        0.0192
      9 C         138.9795  138.9995  165.7522 C.ar    1  UNL1        0.0856
     10 N         139.1778  138.7220  164.2915 N.ar    1  UNL1       -0.2264
     11 C         139.5000  139.5347  161.1002 C.ar    1  UNL1        0.2053
     12 N         139.6983  139.2572  159.6395 N.ar    1  UNL1       -0.2244
     13 C         140.9191  138.5195  159.1752 C.ar    1  UNL1        0.1004
     14 C         141.9415  138.0593  160.1715 C.ar    1  UNL1        0.0209
     15 C         141.7432  138.3368  161.6323 C.ar    1  UNL1        0.0075
     16 C         140.5225  139.0744  162.0966 C.ar    1  UNL1        0.0725
     17 N         137.0585  141.0100  162.0289 N.3     1  UNL1       -0.2021
     18 S         138.2793  140.2723  161.5645 S.O2    1  UNL1        0.0739
     19 O         137.4847  139.0020  161.4937 O.2     1  UNL1       -0.1518
     20 O         139.0738  141.5426  161.6354 O.2     1  UNL1       -0.1518
     21 H         137.2911  141.9916  162.1796 H       1  UNL1        0.1443
     22 H         136.7261  140.6014  162.9024 H       1  UNL1        0.1443
     23 C         140.6775  141.0915  168.6660 C.ar    1  UNL1        0.0001
     24 C         141.9929  140.5638  169.1568 C.ar    1  UNL1        0.0000
     25 C         142.9411  141.4711  169.8834 C.ar    1  UNL1        0.0000
     26 C         142.5737  142.9062  170.1191 C.ar    1  UNL1        0.0000
     27 C         141.2581  143.4339  169.6282 C.ar    1  UNL1        0.0000
     28 C         140.3101  142.5266  168.9017 C.ar    1  UNL1        0.0000
     29 N         142.0222  141.4439  166.4711 N.pl3   1  UNL1       -0.3131
     30 H         142.3857  141.1770  167.3463 H       1  UNL1        0.1485
     31 C         142.4164  142.7579  165.8643 C.3     1  UNL1        0.1348
     32 C         141.4333  143.5234  165.0293 C.ar    1  UNL1        0.0788
     33 C         140.0444  143.7671  165.5408 C.ar    1  UNL1        0.0165
     34 C         139.0612  144.5327  164.7057 C.ar    1  UNL1        0.0029
     35 C         139.4669  145.0546  163.3593 C.ar    1  UNL1        0.0207
     36 C         140.8559  144.8109  162.8478 C.ar    1  UNL1        0.0985
     37 N         141.8390  144.0454  163.6829 N.ar    1  UNL1       -0.2464
@<TRIPOS>BOND
     1    17    18    1
     2    18    19    2
     3    18    20    2
     4    18    11    1
     5    11    12   ar
     6    12    13   ar
     7    13    14   ar
     8    14    15   ar
     9    15    16   ar
    10    16     1    1
    11     1     2   ar
    12     2     3   ar
    13     3    29    1
    14    29    31    1
    15    31    32    1
    16    32    33   ar
    17    33    34   ar
    18    34    35   ar
    19    35    36   ar
    20    36    37   ar
    21     3     4   ar
    22     4     5   ar
    23     5    23    1
    24    23    24   ar
    25    24    25   ar
    26    25    26   ar
    27    26    27   ar
    28    27    28   ar
    29     5     6   ar
    30     6     7   ar
    31     7     8   ar
    32     8     9   ar
    33     9    10   ar
    34    16    11   ar
    35    10     1   ar
    36    37    32   ar
    37     9     4   ar
    38    28    23   ar
    39    17    21    1
    40    17    22    1
    41    29    30    1
@<TRIPOS>MOLECULE
*****
 37 41 0 0 0
SMALL
GASTEIGER

@<TRIPOS>ATOM
      1 C         140.5257  138.9515  160.5670 C.ar    1  UNL1        0.1664
      2 N         140.4191  140.4216  160.8455 N.ar    1  UNL1       -0.2120
      3 C         139.8823  140.8984  162.1625 C.ar    1  UNL1        0.1318
      4 C         139.4521  139.9051  163.2010 C.ar    1  UNL1        0.0491
      5 C         138.9153  140.3819  164.5180 C.ar    1  UNL1        0.0041
      6 C         138.4851  139.3886  165.5564 C.ar    1  UNL1        0.0002
      7 C         138.5917  137.9186  165.2779 C.ar    1  UNL1        0.0015
      8 C         139.1285  137.4418  163.9608 C.ar    1  UNL1        0.0192
      9 C         139.5587  138.4351  162.9224 C.ar    1  UNL1        0.0856
     10 N         140.0955  137.9583  161.6054 N.ar    1  UNL1       -0.2264
     11 C         142.5422  138.3270  159.0523 C.ar    1  UNL1        0.2053
     12 N         143.0790  137.8502  157.7353 N.ar    1  UNL1       -0.2244
     13 C         142.1362  137.5211  156.6160 C.ar    1  UNL1        0.1004
     14 C         140.6567  137.6688  156.8136 C.ar    1  UNL1        0.0209
     15 C         140.1198  138.1456  158.1306 C.ar    1  UNL1        0.0075
     16 C         141.0626  138.4747  159.2500 C.ar    1  UNL1        0.0725
     17 N         144.4277  138.9853  161.2910 N.3     1  UNL1       -0.2021
     18 S         143.4849  138.6561  160.1717 S.O2    1  UNL1        0.0739
     19 O         143.6112  140.0579  159.6532 O.2     1  UNL1       -0.1518
     20 O         143.3586  137.2543  160.6901 O.2     1  UNL1       -0.1518
     21 H         144.5604  138.1611  161.8772 H       1  UNL1        0.1443
     22 H         144.0378  139.7425  161.8523 H       1  UNL1        0.1443
     23 C         138.8087  141.8520  164.7965 C.ar    1  UNL1        0.0001
     24 C         137.6246  142.6259  164.2977 C.ar    1  UNL1        0.0000
     25 C         137.5180  144.0960  164.5762 C.ar    1  UNL1        0.0000
     26 C         138.5955  144.7921  165.3537 C.ar    1  UNL1        0.0000
     27 C         139.7796  144.0181  165.8526 C.ar    1  UNL1        0.0000
     28 C         139.8862  142.5480  165.5740 C.ar    1  UNL1        0.0000
     29 N         139.7757  142.3684  162.4411 N.pl3   1  UNL1       -0.3131
     30 H         138.9466  142.7384  162.8219 H       1  UNL1        0.1485
     31 C         140.9323  143.2748  162.1396 C.3     1  UNL1        0.1348
     32 C         141.0680  143.8899  160.7783 C.ar    1  UNL1        0.0788
     33 C         142.2074  143.4941  159.8866 C.ar    1  UNL1        0.0165
     34 C         142.3431  144.1093  158.5253 C.ar    1  UNL1        0.0029
     35 C         141.3395  145.1203  158.0557 C.ar    1  UNL1        0.0207
     36 C         140.2001  145.5162  158.9475 C.ar    1  UNL1        0.0985
     37 N         140.0644  144.9010  160.3087 N.ar    1  UNL1       -0.2464
@<TRIPOS>BOND
     1    17    18    1
     2    18    19    2
     3    18    20    2
     4    18    11    1
     5    11    12   ar
     6    12    13   ar
     7    13    14   ar
     8    14    15   ar
     9    15    16   ar
    10    16     1    1
    11     1     2   ar
    12     2     3   ar
    13     3    29    1
    14    29    31    1
    15    31    32    1
    16    32    33   ar
    17    33    34   ar
    18    34    35   ar
    19    35    36   ar
    20    36    37   ar
    21     3     4   ar
    22     4     5   ar
    23     5    23    1
    24    23    24   ar
    25    24    25   ar
    26    25    26   ar
    27    26    27   ar
    28    27    28   ar
    29     5     6   ar
    30     6     7   ar
    31     7     8   ar
    32     8     9   ar
    33     9    10   ar
    34    16    11   ar
    35    10     1   ar
    36    37    32   ar
    37     9     4   ar
    38    28    23   ar
    39    17    21    1
    40    17    22    1
    41    29    30    1
@<TRIPOS>MOLECULE
*****
 37 41 0 0 0
SMALL
GASTEIGER

@<TRIPOS>ATOM
      1 C         142.9819  140.5126  160.7314 C.ar    1  UNL1        0.1664
      2 N         141.5694  140.3560  161.2114 N.ar    1  UNL1       -0.2120
      3 C         141.3003  139.8666  162.6036 C.ar    1  UNL1        0.1318
      4 C         142.4437  139.5338  163.5157 C.ar    1  UNL1        0.0491
      5 C         142.1746  139.0443  164.9078 C.ar    1  UNL1        0.0041
      6 C         143.3179  138.7115  165.8200 C.ar    1  UNL1        0.0002
      7 C         144.7303  138.8682  165.3400 C.ar    1  UNL1        0.0015
      8 C         144.9994  139.3576  163.9478 C.ar    1  UNL1        0.0192
      9 C         143.8561  139.6904  163.0357 C.ar    1  UNL1        0.0856
     10 N         144.1253  140.1798  161.6436 N.ar    1  UNL1       -0.2264
     11 C         143.1601  142.4668  159.0286 C.ar    1  UNL1        0.2053
     12 N         143.4292  142.9562  157.6364 N.ar    1  UNL1       -0.2244
     13 C         143.7893  141.9809  156.5551 C.ar    1  UNL1        0.1004
     14 C         143.8803  140.5163  156.8658 C.ar    1  UNL1        0.0209
     15 C         143.6112  140.0269  158.2580 C.ar    1  UNL1        0.0075
     16 C         143.2511  141.0021  159.3393 C.ar    1  UNL1        0.0725
     17 N         142.4399  144.4171  161.1913 N.3     1  UNL1       -0.2021
     18 S         142.8000  143.4419  160.1099 S.O2    1  UNL1        0.0739
     19 O         144.2271  143.4572  160.5714 O.2     1  UNL1       -0.1518
     20 O         141.3728  143.4267  159.6484 O.2     1  UNL1       -0.1518
     21 H         141.4433  144.6284  161.1406 H       1  UNL1        0.1443
     22 H         142.9762  145.2758  161.0672 H       1  UNL1        0.1443
     23 C         140.7621  138.8877  165.3878 C.ar    1  UNL1        0.0001
     24 C         140.1222  139.9723  166.2027 C.ar    1  UNL1        0.0000
     25 C         138.7097  139.8157  166.6827 C.ar    1  UNL1        0.0000
     26 C         137.9371  138.5744  166.3477 C.ar    1  UNL1        0.0000
     27 C         138.5770  137.4897  165.5328 C.ar    1  UNL1        0.0000
     28 C         139.9894  137.6464  165.0529 C.ar    1  UNL1        0.0000
     29 N         139.8879  139.7099  163.0836 N.pl3   1  UNL1       -0.3131
     30 H         139.6341  138.9234  163.6186 H       1  UNL1        0.1485
     31 C         138.8619  140.7517  162.7484 C.3     1  UNL1        0.1348
     32 C         138.9181  142.0986  163.4062 C.ar    1  UNL1        0.0788
     33 C         137.7757  142.5648  164.2592 C.ar    1  UNL1        0.0165
     34 C         137.8319  143.9118  164.9170 C.ar    1  UNL1        0.0029
     35 C         139.0304  144.7923  164.7219 C.ar    1  UNL1        0.0207
     36 C         140.1728  144.3260  163.8689 C.ar    1  UNL1        0.0985
     37 N         140.1166  142.9791  163.2111 N.ar    1  UNL1       -0.2464
@<TRIPOS>BOND
     1    17    18    1
     2    18    19    2
     3    18    20    2
     4    18    11    1
     5    11    12   ar
     6    12    13   ar
     7    13    14   ar
     8    14    15   ar
     9    15    16   ar
    10    16     1    1
    11     1     2   ar
    12     2     3   ar
    13     3    29    1
    14    29    31    1
    15    31    32    1
    16    32    33   ar
    17    33    34   ar
    18    34    35   ar
    19    35    36   ar
    20    36    37   ar
    21     3     4   ar
    22     4     5   ar
    23     5    23    1
    24    23    24   ar
    25    24    25   ar
    26    25    26   ar
    27    26    27   ar
    28    27    28   ar
    29     5     6   ar
    30     6     7   ar
    31     7     8   ar
    32     8     9   ar
    33     9    10   ar
    34    16    11   ar
    35    10     1   ar
    36    37    32   ar
    37     9     4   ar
    38    28    23   ar
    39    17    21    1
    40    17    22    1
    41    29    30    1
@<TRIPOS>MOLECULE
*****
 37 41 0 0 0
SMALL
GASTEIGER

@<TRIPOS>ATOM
      1 C         140.2776  139.5404  163.6116 C.ar    1  UNL1        0.1664
      2 N         141.1952  140.4673  164.3525 N.ar    1  UNL1       -0.2120
      3 C         140.9940  140.7076  165.8194 C.ar    1  UNL1        0.1318
      4 C         139.8751  140.0211  166.5454 C.ar    1  UNL1        0.0491
      5 C         139.6739  140.2614  168.0122 C.ar    1  UNL1        0.0041
      6 C         138.5551  139.5749  168.7382 C.ar    1  UNL1        0.0002
      7 C         137.6376  138.6481  167.9972 C.ar    1  UNL1        0.0015
      8 C         137.8388  138.4078  166.5303 C.ar    1  UNL1        0.0192
      9 C         138.9576  139.0943  165.8044 C.ar    1  UNL1        0.0856
     10 N         139.1588  138.8539  164.3375 N.ar    1  UNL1       -0.2264
     11 C         139.4633  139.7943  161.1575 C.ar    1  UNL1        0.2053
     12 N         139.6645  139.5539  159.6906 N.ar    1  UNL1       -0.2244
     13 C         140.8813  138.8194  159.2109 C.ar    1  UNL1        0.1004
     14 C         141.8968  138.3253  160.1981 C.ar    1  UNL1        0.0209
     15 C         141.6955  138.5656  161.6650 C.ar    1  UNL1        0.0075
     16 C         140.4788  139.3001  162.1447 C.ar    1  UNL1        0.0725
     17 N         137.0298  141.2632  162.1169 N.3     1  UNL1       -0.2021
     18 S         138.2466  140.5287  161.6372 S.O2    1  UNL1        0.0739
     19 O         137.4629  139.2501  161.6072 O.2     1  UNL1       -0.1518
     20 O         139.0302  141.8074  161.6672 O.2     1  UNL1       -0.1518
     21 H         137.2564  142.2494  162.2449 H       1  UNL1        0.1443
     22 H         136.7216  140.8671  163.0049 H       1  UNL1        0.1443
     23 C         140.5915  141.1883  168.7532 C.ar    1  UNL1        0.0001
     24 C         141.8611  140.6636  169.3555 C.ar    1  UNL1        0.0000
     25 C         142.7788  141.5905  170.0964 C.ar    1  UNL1        0.0000
     26 C         142.4267  143.0420  170.2351 C.ar    1  UNL1        0.0000
     27 C         141.1570  143.5666  169.6327 C.ar    1  UNL1        0.0000
     28 C         140.2395  142.6398  168.8918 C.ar    1  UNL1        0.0000
     29 N         141.9115  141.6344  166.5604 N.pl3   1  UNL1       -0.3131
     30 H         141.5638  142.1850  167.2988 H       1  UNL1        0.1485
     31 C         143.3589  141.7224  166.1764 C.3     1  UNL1        0.1348
     32 C         143.7554  142.3935  164.8948 C.ar    1  UNL1        0.0788
     33 C         143.2620  143.7764  164.5886 C.ar    1  UNL1        0.0165
     34 C         143.6584  144.4476  163.3069 C.ar    1  UNL1        0.0029
     35 C         144.5483  143.7357  162.3316 C.ar    1  UNL1        0.0207
     36 C         145.0418  142.3526  162.6379 C.ar    1  UNL1        0.0985
     37 N         144.6453  141.6815  163.9195 N.ar    1  UNL1       -0.2464
@<TRIPOS>BOND
     1    17    18    1
     2    18    19    2
     3    18    20    2
     4    18    11    1
     5    11    12   ar
     6    12    13   ar
     7    13    14   ar
     8    14    15   ar
     9    15    16   ar
    10    16     1    1
    11     1     2   ar
    12     2     3   ar
    13     3    29    1
    14    29    31    1
    15    31    32    1
    16    32    33   ar
    17    33    34   ar
    18    34    35   ar
    19    35    36   ar
    20    36    37   ar
    21     3     4   ar
    22     4     5   ar
    23     5    23    1
    24    23    24   ar
    25    24    25   ar
    26    25    26   ar
    27    26    27   ar
    28    27    28   ar
    29     5     6   ar
    30     6     7   ar
    31     7     8   ar
    32     8     9   ar
    33     9    10   ar
    34    16    11   ar
    35    10     1   ar
    36    37    32   ar
    37     9     4   ar
    38    28    23   ar
    39    17    21    1
    40    17    22    1
    41    29    30    1
@<TRIPOS>MOLECULE
*****
 37 41 0 0 0
SMALL
GASTEIGER

@<TRIPOS>ATOM
      1 C         141.0613  141.8370  167.0870 C.ar    1  UNL1        0.1664
      2 N         141.1924  140.6801  166.1411 N.ar    1  UNL1       -0.2120
      3 C         140.4271  140.6758  164.8510 C.ar    1  UNL1        0.1318
      4 C         139.5309  141.8283  164.5067 C.ar    1  UNL1        0.0491
      5 C         138.7657  141.8240  163.2166 C.ar    1  UNL1        0.0041
      6 C         137.8695  142.9765  162.8723 C.ar    1  UNL1        0.0002
      7 C         137.7385  144.1333  163.8181 C.ar    1  UNL1        0.0015
      8 C         138.5037  144.1376  165.1082 C.ar    1  UNL1        0.0192
      9 C         139.3999  142.9851  165.4525 C.ar    1  UNL1        0.0856
     10 N         140.1651  142.9894  166.7427 N.ar    1  UNL1       -0.2264
     11 C         141.2226  141.2355  169.6093 C.ar    1  UNL1        0.2053
     12 N         141.9878  141.2399  170.8995 N.ar    1  UNL1       -0.2244
     13 C         143.3569  141.8499  170.9573 C.ar    1  UNL1        0.1004
     14 C         143.9608  142.4556  169.7251 C.ar    1  UNL1        0.0209
     15 C         143.1956  142.4513  168.4350 C.ar    1  UNL1        0.0075
     16 C         141.8265  141.8413  168.3771 C.ar    1  UNL1        0.0725
     17 N         138.4843  140.0155  169.4935 N.3     1  UNL1       -0.2021
     18 S         139.8535  140.6255  169.5514 S.O2    1  UNL1        0.0739
     19 O         139.2758  141.8631  170.1716 O.2     1  UNL1       -0.1518
     20 O         140.4311  139.3880  168.9312 O.2     1  UNL1       -0.1518
     21 H         138.5442  139.0838  169.0828 H       1  UNL1        0.1443
     22 H         137.8753  140.6007  168.9216 H       1  UNL1        0.1443
     23 C         138.8967  140.6672  162.2707 C.ar    1  UNL1        0.0001
     24 C         138.0627  139.4366  162.4708 C.ar    1  UNL1        0.0000
     25 C         138.1937  138.2798  161.5249 C.ar    1  UNL1        0.0000
     26 C         139.1588  138.3535  160.3790 C.ar    1  UNL1        0.0000
     27 C         139.9929  139.5841  160.1790 C.ar    1  UNL1        0.0000
     28 C         139.8618  140.7409  161.1248 C.ar    1  UNL1        0.0000
     29 N         140.5581  139.5190  163.9051 N.pl3   1  UNL1       -0.3131
     30 H         139.7573  139.1437  163.4726 H       1  UNL1        0.1485
     31 C         141.9093  138.9340  163.6183 C.3     1  UNL1        0.1348
     32 C         143.0798  139.8377  163.3670 C.ar    1  UNL1        0.0788
     33 C         143.1446  140.6481  162.1064 C.ar    1  UNL1        0.0165
     34 C         144.3152  141.5518  161.8551 C.ar    1  UNL1        0.0029
     35 C         145.4210  141.6451  162.8644 C.ar    1  UNL1        0.0207
     36 C         145.3561  140.8346  164.1250 C.ar    1  UNL1        0.0985
     37 N         144.1856  139.9310  164.3763 N.ar    1  UNL1       -0.2464
@<TRIPOS>BOND
     1    17    18    1
     2    18    19    2
     3    18    20    2
     4    18    11    1
     5    11    12   ar
     6    12    13   ar
     7    13    14   ar
     8    14    15   ar
     9    15    16   ar
    10    16     1    1
    11     1     2   ar
    12     2     3   ar
    13     3    29    1
    14    29    31    1
    15    31    32    1
    16    32    33   ar
    17    33    34   ar
    18    34    35   ar
    19    35    36   ar
    20    36    37   ar
    21     3     4   ar
    22     4     5   ar
    23     5    23    1
    24    23    24   ar
    25    24    25   ar
    26    25    26   ar
    27    26    27   ar
    28    27    28   ar
    29     5     6   ar
    30     6     7   ar
    31     7     8   ar
    32     8     9   ar
    33     9    10   ar
    34    16    11   ar
    35    10     1   ar
    36    37    32   ar
    37     9     4   ar
    38    28    23   ar
    39    17    21    1
    40    17    22    1
    41    29    30    1
