@<TRIPOS>MOLECULE
*****
 36 41 0 0 0
SMALL
GASTEIGER

@<TRIPOS>ATOM
      1 C         142.1375  137.7887  158.0818 C.ar    1  UNL1       -0.0065
      2 C         140.7489  138.2838  157.8055 C.ar    1  UNL1       -0.0029
      3 C         139.8621  138.7020  158.9407 C.ar    1  UNL1        0.0010
      4 C         140.3639  138.6250  160.3521 C.ar    1  UNL1        0.0167
      5 C         141.7526  138.1299  160.6284 C.ar    1  UNL1       -0.0206
      6 C         142.6394  137.7117  159.4933 C.ar    1  UNL1       -0.0071
      7 C         142.2544  138.0529  162.0399 C.3     1  UNL1        0.0312
      8 C         141.3676  138.4711  163.1751 C.3     1  UNL1        0.0360
      9 C         139.9789  138.9662  162.8988 C.ar    1  UNL1        0.0392
     10 C         139.4770  139.0432  161.4873 C.ar    1  UNL1        0.1187
     11 N         138.0724  139.5685  161.5228 N.ar    1  UNL1       -0.0772
     12 O         137.7063  139.8161  162.9561 O.2     1  UNL1       -0.3505
     13 C         138.8844  139.4440  163.8066 C.ar    1  UNL1        0.2097
     14 C         138.9557  139.5337  165.3022 C.ar    1  UNL1        0.2173
     15 O         138.0971  138.7782  166.2727 O.2     1  UNL1       -0.3502
     16 N         138.5090  139.1723  167.6603 N.ar    1  UNL1       -0.0769
     17 C         139.6221  140.1714  167.5471 C.ar    1  UNL1        0.1270
     18 C         139.8982  140.3947  166.0898 C.ar    1  UNL1        0.1323
     19 C         140.3341  140.8312  168.6907 C.ar    1  UNL1        0.0209
     20 C         140.3910  142.3277  168.7755 C.ar    1  UNL1        0.0016
     21 C         141.1030  142.9876  169.9190 C.ar    1  UNL1        0.0000
     22 C         141.7581  142.1509  170.9777 C.ar    1  UNL1        0.0000
     23 C         141.7012  140.6544  170.8929 C.ar    1  UNL1        0.0000
     24 C         140.9892  139.9946  169.7494 C.ar    1  UNL1        0.0016
     25 C         140.9348  141.3172  165.5201 C.3     1  UNL1        0.4231
     26 F         141.9715  142.2396  164.9505 F       1  UNL1       -0.1657
     27 F         141.9979  140.2974  165.8033 F       1  UNL1       -0.1657
     28 F         139.8718  142.3369  165.2370 F       1  UNL1       -0.1657
     29 C         143.0245  137.3705  156.9466 C.3     1  UNL1        0.0992
     30 C         143.6523  133.8562  156.3392 C.3     1  UNL1        0.0684
     31 C         143.5494  135.0797  155.4775 C.3     1  UNL1        0.0793
     32 N         143.2845  135.9148  156.6950 N.3     1  UNL1       -0.2682
     33 C         143.3874  134.6913  157.5567 C.3     1  UNL1        0.0793
     34 O         142.7682  131.4713  155.8091 O.co2   1  UNL1       -0.5491
     35 C         143.9124  132.4004  156.0876 C.2     1  UNL1        0.0527
     36 O         145.3167  131.8738  156.1145 O.co2   1  UNL1       -0.5491
@<TRIPOS>UNITY_ATOM_ATTR
34 1
charge -1
@<TRIPOS>BOND
     1    34    35   ar
     2    35    36   ar
     3    35    30    1
     4    30    31    1
     5    31    32    1
     6    32    29    1
     7    29     1    1
     8     1     2   ar
     9     2     3   ar
    10     3     4   ar
    11     4     5   ar
    12     5     6   ar
    13     5     7    1
    14     7     8    1
    15     8     9    1
    16     9    10   ar
    17    10    11   ar
    18    11    12   ar
    19    12    13   ar
    20    13    14    1
    21    14    15   ar
    22    15    16   ar
    23    16    17   ar
    24    17    19    1
    25    19    20   ar
    26    20    21   ar
    27    21    22   ar
    28    22    23   ar
    29    23    24   ar
    30    17    18   ar
    31    18    25    1
    32    25    26    1
    33    25    27    1
    34    25    28    1
    35    32    33    1
    36    33    30    1
    37     6     1   ar
    38    13     9   ar
    39    18    14   ar
    40    10     4    1
    41    24    19   ar
@<TRIPOS>MOLECULE
*****
 36 41 0 0 0
SMALL
GASTEIGER

@<TRIPOS>ATOM
      1 C         138.3720  138.8606  166.2043 C.ar    1  UNL1       -0.0065
      2 C         138.8723  137.6693  165.4424 C.ar    1  UNL1       -0.0029
      3 C         139.0135  137.7385  163.9507 C.ar    1  UNL1        0.0010
      4 C         138.6544  138.9989  163.2209 C.ar    1  UNL1        0.0167
      5 C         138.1541  140.1901  163.9829 C.ar    1  UNL1       -0.0206
      6 C         138.0129  140.1209  165.4746 C.ar    1  UNL1       -0.0071
      7 C         137.7950  141.4505  163.2532 C.3     1  UNL1        0.0312
      8 C         137.9362  141.5196  161.7615 C.3     1  UNL1        0.0360
      9 C         138.4366  140.3284  160.9994 C.ar    1  UNL1        0.0392
     10 C         138.7957  139.0680  161.7291 C.ar    1  UNL1        0.1187
     11 N         139.2589  138.0624  160.7171 N.ar    1  UNL1       -0.0772
     12 O         139.1861  138.7013  159.3620 O.2     1  UNL1       -0.3505
     13 C         138.6779  140.1017  159.5364 C.ar    1  UNL1        0.2097
     14 C         138.4508  141.1002  158.4403 C.ar    1  UNL1        0.2173
     15 O         137.4211  140.9984  157.3543 O.2     1  UNL1       -0.3502
     16 N         137.5475  142.2112  156.4806 N.ar    1  UNL1       -0.0769
     17 C         138.6554  143.0624  157.0266 C.ar    1  UNL1        0.1270
     18 C         139.2137  142.3758  158.2378 C.ar    1  UNL1        0.1323
     19 C         139.1229  144.3705  156.4608 C.ar    1  UNL1        0.0209
     20 C         140.4943  144.8821  156.7883 C.ar    1  UNL1        0.0016
     21 C         140.9618  146.1902  156.2225 C.ar    1  UNL1        0.0000
     22 C         140.0578  146.9868  155.3291 C.ar    1  UNL1        0.0000
     23 C         138.6863  146.4753  155.0015 C.ar    1  UNL1        0.0000
     24 C         138.2188  145.1671  155.5673 C.ar    1  UNL1        0.0016
     25 C         140.3374  142.8768  159.0957 C.3     1  UNL1        0.4231
     26 F         141.4611  143.3779  159.9536 F       1  UNL1       -0.1657
     27 F         139.3867  143.7954  159.8045 F       1  UNL1       -0.1657
     28 F         141.2881  141.9582  158.3869 F       1  UNL1       -0.1657
     29 C         138.2307  138.7915  167.6961 C.3     1  UNL1        0.0992
     30 C         139.6967  141.3688  169.7750 C.3     1  UNL1        0.0684
     31 C         138.6209  140.3403  169.9612 C.3     1  UNL1        0.0793
     32 N         138.8380  139.8590  168.5572 N.3     1  UNL1       -0.2682
     33 C         139.9138  140.8875  168.3710 C.3     1  UNL1        0.0793
     34 O         140.0269  143.8818  170.3461 O.co2   1  UNL1       -0.5491
     35 C         140.3040  142.4364  170.6362 C.2     1  UNL1        0.0527
     36 O         141.1884  142.0586  171.7873 O.co2   1  UNL1       -0.5491
@<TRIPOS>UNITY_ATOM_ATTR
34 1
charge -1
@<TRIPOS>BOND
     1    34    35   ar
     2    35    36   ar
     3    35    30    1
     4    30    31    1
     5    31    32    1
     6    32    29    1
     7    29     1    1
     8     1     2   ar
     9     2     3   ar
    10     3     4   ar
    11     4     5   ar
    12     5     6   ar
    13     5     7    1
    14     7     8    1
    15     8     9    1
    16     9    10   ar
    17    10    11   ar
    18    11    12   ar
    19    12    13   ar
    20    13    14    1
    21    14    15   ar
    22    15    16   ar
    23    16    17   ar
    24    17    19    1
    25    19    20   ar
    26    20    21   ar
    27    21    22   ar
    28    22    23   ar
    29    23    24   ar
    30    17    18   ar
    31    18    25    1
    32    25    26    1
    33    25    27    1
    34    25    28    1
    35    32    33    1
    36    33    30    1
    37     6     1   ar
    38    13     9   ar
    39    18    14   ar
    40    10     4    1
    41    24    19   ar
@<TRIPOS>MOLECULE
*****
 36 41 0 0 0
SMALL
GASTEIGER

@<TRIPOS>ATOM
      1 C         143.0669  138.6813  157.1070 C.ar    1  UNL1       -0.0065
      2 C         143.8254  139.9602  157.3044 C.ar    1  UNL1       -0.0029
      3 C         144.1027  140.4613  158.6908 C.ar    1  UNL1        0.0010
      4 C         143.6214  139.6836  159.8797 C.ar    1  UNL1        0.0167
      5 C         142.8629  138.4047  159.6823 C.ar    1  UNL1       -0.0206
      6 C         142.5856  137.9035  158.2960 C.ar    1  UNL1       -0.0071
      7 C         142.3816  137.6270  160.8712 C.3     1  UNL1        0.0312
      8 C         142.6589  138.1281  162.2575 C.3     1  UNL1        0.0360
      9 C         143.4175  139.4071  162.4550 C.ar    1  UNL1        0.0392
     10 C         143.8987  140.1848  161.2660 C.ar    1  UNL1        0.1187
     11 N         144.6162  141.4026  161.7683 N.ar    1  UNL1       -0.0772
     12 O         144.5784  141.3774  163.2676 O.2     1  UNL1       -0.3505
     13 C         143.8375  140.1442  163.6920 C.ar    1  UNL1        0.2097
     14 C         143.5646  139.7221  165.1053 C.ar    1  UNL1        0.2173
     15 O         144.0683  138.4728  165.7652 O.2     1  UNL1       -0.3502
     16 N         143.5550  138.4538  167.1746 N.ar    1  UNL1       -0.0769
     17 C         142.7342  139.6914  167.3856 C.ar    1  UNL1        0.1270
     18 C         142.7401  140.4753  166.1067 C.ar    1  UNL1        0.1323
     19 C         142.0309  140.0774  168.6530 C.ar    1  UNL1        0.0209
     20 C         140.5346  140.0082  168.7313 C.ar    1  UNL1        0.0016
     21 C         139.8313  140.3942  169.9988 C.ar    1  UNL1        0.0000
     22 C         140.6243  140.8492  171.1879 C.ar    1  UNL1        0.0000
     23 C         142.1207  140.9183  171.1096 C.ar    1  UNL1        0.0000
     24 C         142.8239  140.5324  169.8422 C.ar    1  UNL1        0.0016
     25 C         142.0438  141.7827  165.8708 C.3     1  UNL1        0.4231
     26 F         141.3475  143.0901  165.6349 F       1  UNL1       -0.1657
     27 F         143.2750  142.5178  166.3110 F       1  UNL1       -0.1657
     28 F         140.8126  141.0476  165.4306 F       1  UNL1       -0.1657
     29 C         142.7896  138.1801  155.7207 C.3     1  UNL1        0.0992
     30 C         141.9142  134.7061  155.1926 C.3     1  UNL1        0.0684
     31 C         143.1978  135.4805  155.2436 C.3     1  UNL1        0.0793
     32 N         142.4270  136.7411  155.5019 N.3     1  UNL1       -0.2682
     33 C         141.1434  135.9667  155.4509 C.3     1  UNL1        0.0793
     34 O         141.7376  132.2703  156.0792 O.co2   1  UNL1       -0.5491
     35 C         141.5515  133.2671  154.9739 C.2     1  UNL1        0.0527
     36 O         141.0027  132.8249  153.6497 O.co2   1  UNL1       -0.5491
@<TRIPOS>UNITY_ATOM_ATTR
34 1
charge -1
@<TRIPOS>BOND
     1    34    35   ar
     2    35    36   ar
     3    35    30    1
     4    30    31    1
     5    31    32    1
     6    32    29    1
     7    29     1    1
     8     1     2   ar
     9     2     3   ar
    10     3     4   ar
    11     4     5   ar
    12     5     6   ar
    13     5     7    1
    14     7     8    1
    15     8     9    1
    16     9    10   ar
    17    10    11   ar
    18    11    12   ar
    19    12    13   ar
    20    13    14    1
    21    14    15   ar
    22    15    16   ar
    23    16    17   ar
    24    17    19    1
    25    19    20   ar
    26    20    21   ar
    27    21    22   ar
    28    22    23   ar
    29    23    24   ar
    30    17    18   ar
    31    18    25    1
    32    25    26    1
    33    25    27    1
    34    25    28    1
    35    32    33    1
    36    33    30    1
    37     6     1   ar
    38    13     9   ar
    39    18    14   ar
    40    10     4    1
    41    24    19   ar
@<TRIPOS>MOLECULE
*****
 36 41 0 0 0
SMALL
GASTEIGER

@<TRIPOS>ATOM
      1 C         138.7608  140.1839  157.4241 C.ar    1  UNL1       -0.0065
      2 C         139.6375  138.9762  157.5744 C.ar    1  UNL1       -0.0029
      3 C         139.9724  138.4580  158.9416 C.ar    1  UNL1        0.0010
      4 C         139.4305  139.1476  160.1585 C.ar    1  UNL1        0.0167
      5 C         138.5537  140.3553  160.0082 C.ar    1  UNL1       -0.0206
      6 C         138.2188  140.8734  158.6409 C.ar    1  UNL1       -0.0071
      7 C         138.0118  141.0449  161.2251 C.3     1  UNL1        0.0312
      8 C         138.3467  140.5268  162.5923 C.3     1  UNL1        0.0360
      9 C         139.2235  139.3190  162.7427 C.ar    1  UNL1        0.0392
     10 C         139.7654  138.6294  161.5258 C.ar    1  UNL1        0.1187
     11 N         140.5982  137.4687  161.9831 N.ar    1  UNL1       -0.0772
     12 O         140.5710  137.4409  163.4825 O.2     1  UNL1       -0.3505
     13 C         139.7214  138.5844  163.9520 C.ar    1  UNL1        0.2097
     14 C         139.4222  138.9324  165.3801 C.ar    1  UNL1        0.2173
     15 O         138.1953  138.5348  166.1460 O.2     1  UNL1       -0.3502
     16 N         138.3122  139.0957  167.5323 N.ar    1  UNL1       -0.0769
     17 C         139.6114  139.8400  167.6231 C.ar    1  UNL1        0.1270
     18 C         140.2974  139.7391  166.2930 C.ar    1  UNL1        0.1323
     19 C         140.1329  140.5590  168.8318 C.ar    1  UNL1        0.0209
     20 C         139.8840  142.0291  168.9955 C.ar    1  UNL1        0.0016
     21 C         140.4055  142.7480  170.2042 C.ar    1  UNL1        0.0000
     22 C         141.1760  141.9969  171.2493 C.ar    1  UNL1        0.0000
     23 C         141.4249  140.5268  171.0857 C.ar    1  UNL1        0.0000
     24 C         140.9034  139.8078  169.8769 C.ar    1  UNL1        0.0016
     25 C         141.6254  140.3394  165.9381 C.3     1  UNL1        0.4231
     26 F         142.9534  140.9397  165.5833 F       1  UNL1       -0.1657
     27 F         142.2979  139.0349  166.2484 F       1  UNL1       -0.1657
     28 F         140.9529  141.6438  165.6279 F       1  UNL1       -0.1657
     29 C         138.4258  140.7020  156.0568 C.3     1  UNL1        0.0992
     30 C         134.9653  141.1410  155.0843 C.3     1  UNL1        0.0684
     31 C         135.8894  139.9668  155.2154 C.3     1  UNL1        0.0793
     32 N         136.9924  140.8839  155.6540 N.3     1  UNL1       -0.2682
     33 C         136.0683  142.0581  155.5229 C.3     1  UNL1        0.0793
     34 O         133.1879  141.6434  153.2571 O.co2   1  UNL1       -0.5491
     35 C         133.5318  141.3229  154.6815 C.2     1  UNL1        0.0527
     36 O         132.4423  141.1843  155.7032 O.co2   1  UNL1       -0.5491
@<TRIPOS>UNITY_ATOM_ATTR
34 1
charge -1
@<TRIPOS>BOND
     1    34    35   ar
     2    35    36   ar
     3    35    30    1
     4    30    31    1
     5    31    32    1
     6    32    29    1
     7    29     1    1
     8     1     2   ar
     9     2     3   ar
    10     3     4   ar
    11     4     5   ar
    12     5     6   ar
    13     5     7    1
    14     7     8    1
    15     8     9    1
    16     9    10   ar
    17    10    11   ar
    18    11    12   ar
    19    12    13   ar
    20    13    14    1
    21    14    15   ar
    22    15    16   ar
    23    16    17   ar
    24    17    19    1
    25    19    20   ar
    26    20    21   ar
    27    21    22   ar
    28    22    23   ar
    29    23    24   ar
    30    17    18   ar
    31    18    25    1
    32    25    26    1
    33    25    27    1
    34    25    28    1
    35    32    33    1
    36    33    30    1
    37     6     1   ar
    38    13     9   ar
    39    18    14   ar
    40    10     4    1
    41    24    19   ar
@<TRIPOS>MOLECULE
*****
 36 41 0 0 0
SMALL
GASTEIGER

@<TRIPOS>ATOM
      1 C         143.0303  139.9932  157.5335 C.ar    1  UNL1       -0.0065
      2 C         142.0330  138.8818  157.6759 C.ar    1  UNL1       -0.0029
      3 C         141.6905  138.3513  159.0364 C.ar    1  UNL1        0.0010
      4 C         142.3453  138.9321  160.2546 C.ar    1  UNL1        0.0167
      5 C         143.3426  140.0434  160.1122 C.ar    1  UNL1       -0.0206
      6 C         143.6851  140.5739  158.7516 C.ar    1  UNL1       -0.0071
      7 C         143.9974  140.6242  161.3303 C.3     1  UNL1        0.0312
      8 C         143.6549  140.0936  162.6909 C.3     1  UNL1        0.0360
      9 C         142.6576  138.9822  162.8334 C.ar    1  UNL1        0.0392
     10 C         142.0028  138.4015  161.6152 C.ar    1  UNL1        0.1187
     11 N         141.0648  137.3204  162.0641 N.ar    1  UNL1       -0.0772
     12 O         141.1399  137.2331  163.5596 O.2     1  UNL1       -0.3505
     13 C         142.1243  138.2601  164.0351 C.ar    1  UNL1        0.2097
     14 C         142.5080  138.5195  165.4618 C.ar    1  UNL1        0.2173
     15 O         143.5514  137.7773  166.2431 O.2     1  UNL1       -0.3502
     16 N         143.6040  138.3658  167.6219 N.ar    1  UNL1       -0.0769
     17 C         142.5931  139.4718  167.6926 C.ar    1  UNL1        0.1270
     18 C         141.9157  139.5668  166.3576 C.ar    1  UNL1        0.1323
     19 C         142.3094  140.3317  168.8884 C.ar    1  UNL1        0.0209
     20 C         143.0337  141.6333  169.0650 C.ar    1  UNL1        0.0016
     21 C         142.7500  142.4933  170.2608 C.ar    1  UNL1        0.0000
     22 C         141.7419  142.0516  171.2800 C.ar    1  UNL1        0.0000
     23 C         141.0176  140.7501  171.1035 C.ar    1  UNL1        0.0000
     24 C         141.3013  139.8901  169.9076 C.ar    1  UNL1        0.0016
     25 C         140.8358  140.5384  165.9841 C.3     1  UNL1        0.4231
     26 F         139.7558  141.5100  165.6106 F       1  UNL1       -0.1657
     27 F         139.8196  139.6711  166.6661 F       1  UNL1       -0.1657
     28 F         141.8519  141.4058  165.3020 F       1  UNL1       -0.1657
     29 C         143.3728  140.5238  156.1728 C.3     1  UNL1        0.0992
     30 C         146.7807  141.4797  155.4073 C.3     1  UNL1        0.0684
     31 C         145.5871  142.1801  155.9860 C.3     1  UNL1        0.0793
     32 N         144.7844  140.9197  155.8557 N.3     1  UNL1       -0.2682
     33 C         145.9779  140.2193  155.2771 C.3     1  UNL1        0.0793
     34 O         149.2248  141.9073  156.1779 O.co2   1  UNL1       -0.5491
     35 C         148.1924  141.8756  155.0902 C.2     1  UNL1        0.0527
     36 O         148.5716  142.2398  153.6853 O.co2   1  UNL1       -0.5491
@<TRIPOS>UNITY_ATOM_ATTR
34 1
charge -1
@<TRIPOS>BOND
     1    34    35   ar
     2    35    36   ar
     3    35    30    1
     4    30    31    1
     5    31    32    1
     6    32    29    1
     7    29     1    1
     8     1     2   ar
     9     2     3   ar
    10     3     4   ar
    11     4     5   ar
    12     5     6   ar
    13     5     7    1
    14     7     8    1
    15     8     9    1
    16     9    10   ar
    17    10    11   ar
    18    11    12   ar
    19    12    13   ar
    20    13    14    1
    21    14    15   ar
    22    15    16   ar
    23    16    17   ar
    24    17    19    1
    25    19    20   ar
    26    20    21   ar
    27    21    22   ar
    28    22    23   ar
    29    23    24   ar
    30    17    18   ar
    31    18    25    1
    32    25    26    1
    33    25    27    1
    34    25    28    1
    35    32    33    1
    36    33    30    1
    37     6     1   ar
    38    13     9   ar
    39    18    14   ar
    40    10     4    1
    41    24    19   ar
@<TRIPOS>MOLECULE
*****
 36 41 0 0 0
SMALL
GASTEIGER

@<TRIPOS>ATOM
      1 C         143.0000  139.8791  165.9022 C.ar    1  UNL1       -0.0065
      2 C         142.8191  141.3088  165.4859 C.ar    1  UNL1       -0.0029
      3 C         142.9201  141.6867  164.0379 C.ar    1  UNL1        0.0010
      4 C         143.2021  140.6351  163.0061 C.ar    1  UNL1        0.0167
      5 C         143.3830  139.2054  163.4224 C.ar    1  UNL1       -0.0206
      6 C         143.2819  138.8275  164.8705 C.ar    1  UNL1       -0.0071
      7 C         143.6649  138.1538  162.3907 C.3     1  UNL1        0.0312
      8 C         143.7659  138.5318  160.9426 C.3     1  UNL1        0.0360
      9 C         143.5850  139.9615  160.5263 C.ar    1  UNL1        0.0392
     10 C         143.3031  141.0131  161.5580 C.ar    1  UNL1        0.1187
     11 N         143.1721  142.3307  160.8531 N.ar    1  UNL1       -0.0772
     12 O         143.3731  142.0933  159.3858 O.2     1  UNL1       -0.3505
     13 C         143.6283  140.6291  159.1837 C.ar    1  UNL1        0.2097
     14 C         143.8822  139.9514  157.8699 C.ar    1  UNL1        0.2173
     15 O         145.0958  140.1287  157.0064 O.2     1  UNL1       -0.3502
     16 N         144.9307  139.2642  155.7916 N.ar    1  UNL1       -0.0769
     17 C         143.6149  138.5528  155.9044 C.ar    1  UNL1        0.1270
     18 C         142.9669  138.9774  157.1888 C.ar    1  UNL1        0.1323
     19 C         143.0470  137.5863  154.9078 C.ar    1  UNL1        0.0209
     20 C         143.1922  136.1097  155.1282 C.ar    1  UNL1        0.0016
     21 C         142.6243  135.1432  154.1315 C.ar    1  UNL1        0.0000
     22 C         141.9111  135.6533  152.9145 C.ar    1  UNL1        0.0000
     23 C         141.7659  137.1299  152.6940 C.ar    1  UNL1        0.0000
     24 C         142.3338  138.0964  153.6907 C.ar    1  UNL1        0.0016
     25 C         141.6372  138.5102  157.7021 C.3     1  UNL1        0.4231
     26 F         140.3075  138.0430  158.2153 F       1  UNL1       -0.1657
     27 F         140.9763  139.7015  157.0742 F       1  UNL1       -0.1657
     28 F         142.2981  137.3189  158.3299 F       1  UNL1       -0.1657
     29 C         142.8990  139.5011  167.3503 C.3     1  UNL1        0.0992
     30 C         141.2542  141.7215  169.6909 C.3     1  UNL1        0.0684
     31 C         140.8041  140.8719  168.5395 C.3     1  UNL1        0.0793
     32 N         142.2177  140.4208  168.3198 N.3     1  UNL1       -0.2682
     33 C         142.6678  141.2704  169.4712 C.3     1  UNL1        0.0793
     34 O         140.3859  142.2210  172.0881 O.co2   1  UNL1       -0.5491
     35 C         140.5729  142.6413  170.6604 C.2     1  UNL1        0.0527
     36 O         140.0788  143.9814  170.2022 O.co2   1  UNL1       -0.5491
@<TRIPOS>UNITY_ATOM_ATTR
34 1
charge -1
@<TRIPOS>BOND
     1    34    35   ar
     2    35    36   ar
     3    35    30    1
     4    30    31    1
     5    31    32    1
     6    32    29    1
     7    29     1    1
     8     1     2   ar
     9     2     3   ar
    10     3     4   ar
    11     4     5   ar
    12     5     6   ar
    13     5     7    1
    14     7     8    1
    15     8     9    1
    16     9    10   ar
    17    10    11   ar
    18    11    12   ar
    19    12    13   ar
    20    13    14    1
    21    14    15   ar
    22    15    16   ar
    23    16    17   ar
    24    17    19    1
    25    19    20   ar
    26    20    21   ar
    27    21    22   ar
    28    22    23   ar
    29    23    24   ar
    30    17    18   ar
    31    18    25    1
    32    25    26    1
    33    25    27    1
    34    25    28    1
    35    32    33    1
    36    33    30    1
    37     6     1   ar
    38    13     9   ar
    39    18    14   ar
    40    10     4    1
    41    24    19   ar
@<TRIPOS>MOLECULE
*****
 36 41 0 0 0
SMALL
GASTEIGER

@<TRIPOS>ATOM
      1 C         143.6346  143.1296  156.3543 C.ar    1  UNL1       -0.0065
      2 C         142.5872  144.1896  156.5261 C.ar    1  UNL1       -0.0029
      3 C         142.0317  144.4811  157.8885 C.ar    1  UNL1        0.0010
      4 C         142.5236  143.7127  159.0792 C.ar    1  UNL1        0.0167
      5 C         143.5709  142.6528  158.9074 C.ar    1  UNL1       -0.0206
      6 C         144.1264  142.3612  157.5449 C.ar    1  UNL1       -0.0071
      7 C         144.0628  141.8844  160.0980 C.3     1  UNL1        0.0312
      8 C         143.5073  142.1759  161.4605 C.3     1  UNL1        0.0360
      9 C         142.4599  143.2359  161.6324 C.ar    1  UNL1        0.0392
     10 C         141.9680  144.0043  160.4417 C.ar    1  UNL1        0.1187
     11 N         140.9359  144.9838  160.9163 N.ar    1  UNL1       -0.0772
     12 O         140.7899  144.8208  162.4002 O.2     1  UNL1       -0.3505
     13 C         141.7317  143.7406  162.8428 C.ar    1  UNL1        0.2097
     14 C         141.9135  143.2509  164.2489 C.ar    1  UNL1        0.2173
     15 O         143.2249  142.9985  164.9320 O.2     1  UNL1       -0.3502
     16 N         142.9377  142.5193  166.3241 N.ar    1  UNL1       -0.0769
     17 C         141.4488  142.4755  166.5013 C.ar    1  UNL1        0.1270
     18 C         140.8158  142.9276  165.2188 C.ar    1  UNL1        0.1323
     19 C         140.7208  142.0535  167.7431 C.ar    1  UNL1        0.0209
     20 C         140.0856  140.6966  167.8155 C.ar    1  UNL1        0.0016
     21 C         139.3576  140.2747  169.0573 C.ar    1  UNL1        0.0000
     22 C         139.2648  141.2097  170.2266 C.ar    1  UNL1        0.0000
     23 C         139.9000  142.5666  170.1541 C.ar    1  UNL1        0.0000
     24 C         140.6280  142.9885  168.9123 C.ar    1  UNL1        0.0016
     25 C         139.3437  143.0372  164.9529 C.3     1  UNL1        0.4231
     26 F         137.8716  143.1468  164.6869 F       1  UNL1       -0.1657
     27 F         139.3086  141.5921  164.5520 F       1  UNL1       -0.1657
     28 F         139.3789  144.4823  165.3536 F       1  UNL1       -0.1657
     29 C         144.1901  142.8380  154.9917 C.3     1  UNL1        0.0992
     30 C         147.7149  142.1103  154.5912 C.3     1  UNL1        0.0684
     31 C         146.8980  143.3619  154.7185 C.3     1  UNL1        0.0793
     32 N         145.6501  142.5366  154.8258 N.3     1  UNL1       -0.2682
     33 C         146.4669  141.2849  154.6985 C.3     1  UNL1        0.0793
     34 O         150.0851  141.8290  155.6174 O.co2   1  UNL1       -0.5491
     35 C         149.1749  141.8087  154.4253 C.2     1  UNL1        0.0527
     36 O         149.7247  141.4870  153.0673 O.co2   1  UNL1       -0.5491
@<TRIPOS>UNITY_ATOM_ATTR
34 1
charge -1
@<TRIPOS>BOND
     1    34    35   ar
     2    35    36   ar
     3    35    30    1
     4    30    31    1
     5    31    32    1
     6    32    29    1
     7    29     1    1
     8     1     2   ar
     9     2     3   ar
    10     3     4   ar
    11     4     5   ar
    12     5     6   ar
    13     5     7    1
    14     7     8    1
    15     8     9    1
    16     9    10   ar
    17    10    11   ar
    18    11    12   ar
    19    12    13   ar
    20    13    14    1
    21    14    15   ar
    22    15    16   ar
    23    16    17   ar
    24    17    19    1
    25    19    20   ar
    26    20    21   ar
    27    21    22   ar
    28    22    23   ar
    29    23    24   ar
    30    17    18   ar
    31    18    25    1
    32    25    26    1
    33    25    27    1
    34    25    28    1
    35    32    33    1
    36    33    30    1
    37     6     1   ar
    38    13     9   ar
    39    18    14   ar
    40    10     4    1
    41    24    19   ar
@<TRIPOS>MOLECULE
*****
 36 41 0 0 0
SMALL
GASTEIGER

@<TRIPOS>ATOM
      1 C         141.6222  137.0649  156.5988 C.ar    1  UNL1       -0.0065
      2 C         140.2428  137.6535  156.5717 C.ar    1  UNL1       -0.0029
      3 C         139.7289  138.4150  157.7574 C.ar    1  UNL1        0.0010
      4 C         140.5944  138.5879  158.9702 C.ar    1  UNL1        0.0167
      5 C         141.9739  137.9994  158.9973 C.ar    1  UNL1       -0.0206
      6 C         142.4877  137.2379  157.8116 C.ar    1  UNL1       -0.0071
      7 C         142.8394  138.1723  160.2102 C.3     1  UNL1        0.0312
      8 C         142.3255  138.9338  161.3959 C.3     1  UNL1        0.0360
      9 C         140.9460  139.5225  161.3688 C.ar    1  UNL1        0.0392
     10 C         140.0805  139.3495  160.1560 C.ar    1  UNL1        0.1187
     11 N         138.7734  140.0374  160.4174 N.ar    1  UNL1       -0.0772
     12 O         138.8312  140.6355  161.7918 O.2     1  UNL1       -0.3505
     13 C         140.1738  140.3172  162.3798 C.ar    1  UNL1        0.2097
     14 C         140.6592  140.7226  163.7400 C.ar    1  UNL1        0.2173
     15 O         141.5194  141.9114  164.0510 O.2     1  UNL1       -0.3502
     16 N         141.7615  141.9338  165.5313 N.ar    1  UNL1       -0.0769
     17 C         141.0508  140.7588  166.1349 C.ar    1  UNL1        0.1270
     18 C         140.3696  140.0102  165.0279 C.ar    1  UNL1        0.1323
     19 C         141.0258  140.3961  167.5902 C.ar    1  UNL1        0.0209
     20 C         139.8043  140.6802  168.4130 C.ar    1  UNL1        0.0016
     21 C         139.7793  140.3176  169.8683 C.ar    1  UNL1        0.0000
     22 C         140.9758  139.6708  170.5007 C.ar    1  UNL1        0.0000
     23 C         142.1974  139.3867  169.6779 C.ar    1  UNL1        0.0000
     24 C         142.2224  139.7494  168.2226 C.ar    1  UNL1        0.0016
     25 C         139.5438  138.7676  165.1818 C.3     1  UNL1        0.4231
     26 F         138.7179  137.5249  165.3357 F       1  UNL1       -0.1657
     27 F         138.3216  139.6077  165.4069 F       1  UNL1       -0.1657
     28 F         140.7659  137.9275  164.9566 F       1  UNL1       -0.1657
     29 C         142.1362  136.3033  155.4130 C.3     1  UNL1        0.0992
     30 C         143.1268  132.8392  155.7767 C.3     1  UNL1        0.0684
     31 C         143.8066  134.1625  155.9684 C.3     1  UNL1        0.0793
     32 N         142.5465  134.8685  155.5637 N.3     1  UNL1       -0.2682
     33 C         141.8667  133.5452  155.3720 C.3     1  UNL1        0.0793
     34 O         144.4266  130.7669  154.9014 O.co2   1  UNL1       -0.5491
     35 C         143.5372  131.4043  155.9273 C.2     1  UNL1        0.0527
     36 O         143.0579  130.6067  157.1039 O.co2   1  UNL1       -0.5491
@<TRIPOS>UNITY_ATOM_ATTR
34 1
charge -1
@<TRIPOS>BOND
     1    34    35   ar
     2    35    36   ar
     3    35    30    1
     4    30    31    1
     5    31    32    1
     6    32    29    1
     7    29     1    1
     8     1     2   ar
     9     2     3   ar
    10     3     4   ar
    11     4     5   ar
    12     5     6   ar
    13     5     7    1
    14     7     8    1
    15     8     9    1
    16     9    10   ar
    17    10    11   ar
    18    11    12   ar
    19    12    13   ar
    20    13    14    1
    21    14    15   ar
    22    15    16   ar
    23    16    17   ar
    24    17    19    1
    25    19    20   ar
    26    20    21   ar
    27    21    22   ar
    28    22    23   ar
    29    23    24   ar
    30    17    18   ar
    31    18    25    1
    32    25    26    1
    33    25    27    1
    34    25    28    1
    35    32    33    1
    36    33    30    1
    37     6     1   ar
    38    13     9   ar
    39    18    14   ar
    40    10     4    1
    41    24    19   ar
@<TRIPOS>MOLECULE
*****
 36 41 0 0 0
SMALL
GASTEIGER

@<TRIPOS>ATOM
      1 C         142.3834  139.1762  166.1555 C.ar    1  UNL1       -0.0065
      2 C         141.0797  138.6997  165.5872 C.ar    1  UNL1       -0.0029
      3 C         140.8952  138.6164  164.1009 C.ar    1  UNL1        0.0010
      4 C         142.0146  139.0095  163.1830 C.ar    1  UNL1        0.0167
      5 C         143.3183  139.4860  163.7514 C.ar    1  UNL1       -0.0206
      6 C         143.5028  139.5693  165.2376 C.ar    1  UNL1       -0.0071
      7 C         144.4377  139.8791  162.8335 C.3     1  UNL1        0.0312
      8 C         144.2532  139.7958  161.3472 C.3     1  UNL1        0.0360
      9 C         142.9494  139.3193  160.7788 C.ar    1  UNL1        0.0392
     10 C         141.8301  138.9261  161.6967 C.ar    1  UNL1        0.1187
     11 N         140.6670  138.4972  160.8521 N.ar    1  UNL1       -0.0772
     12 O         141.0675  138.6253  159.4123 O.2     1  UNL1       -0.3505
     13 C         142.4781  139.1333  159.3670 C.ar    1  UNL1        0.2097
     14 C         143.2771  139.4073  158.1274 C.ar    1  UNL1        0.2173
     15 O         143.7149  138.3884  157.1174 O.2     1  UNL1       -0.3502
     16 N         144.4870  139.0998  156.0460 N.ar    1  UNL1       -0.0769
     17 C         144.5265  140.5584  156.3940 C.ar    1  UNL1        0.1270
     18 C         143.7787  140.7484  157.6803 C.ar    1  UNL1        0.1323
     19 C         145.1961  141.6374  155.5957 C.ar    1  UNL1        0.0209
     20 C         146.6544  141.9245  155.7979 C.ar    1  UNL1        0.0016
     21 C         147.3240  143.0035  154.9995 C.ar    1  UNL1        0.0000
     22 C         146.5354  143.7954  153.9990 C.ar    1  UNL1        0.0000
     23 C         145.0771  143.5082  153.7968 C.ar    1  UNL1        0.0000
     24 C         144.4075  142.4292  154.5951 C.ar    1  UNL1        0.0016
     25 C         143.5694  142.0509  158.3942 C.3     1  UNL1        0.4231
     26 F         143.3601  143.3534  159.1081 F       1  UNL1       -0.1657
     27 F         144.9863  142.0098  158.8848 F       1  UNL1       -0.1657
     28 F         142.1524  142.0921  157.9037 F       1  UNL1       -0.1657
     29 C         142.5679  139.2596  167.6418 C.3     1  UNL1        0.0992
     30 C         140.9499  141.8978  169.5221 C.3     1  UNL1        0.0684
     31 C         141.5971  140.5903  169.8708 C.3     1  UNL1        0.0793
     32 N         141.8978  140.3524  168.4207 N.3     1  UNL1       -0.2682
     33 C         141.2506  141.6599  168.0719 C.3     1  UNL1        0.0793
     34 O         140.8535  144.3766  170.2945 O.co2   1  UNL1       -0.5491
     35 C         140.2797  142.9907  170.3009 C.2     1  UNL1        0.0527
     36 O         139.0357  142.6976  171.0861 O.co2   1  UNL1       -0.5491
@<TRIPOS>UNITY_ATOM_ATTR
34 1
charge -1
@<TRIPOS>BOND
     1    34    35   ar
     2    35    36   ar
     3    35    30    1
     4    30    31    1
     5    31    32    1
     6    32    29    1
     7    29     1    1
     8     1     2   ar
     9     2     3   ar
    10     3     4   ar
    11     4     5   ar
    12     5     6   ar
    13     5     7    1
    14     7     8    1
    15     8     9    1
    16     9    10   ar
    17    10    11   ar
    18    11    12   ar
    19    12    13   ar
    20    13    14    1
    21    14    15   ar
    22    15    16   ar
    23    16    17   ar
    24    17    19    1
    25    19    20   ar
    26    20    21   ar
    27    21    22   ar
    28    22    23   ar
    29    23    24   ar
    30    17    18   ar
    31    18    25    1
    32    25    26    1
    33    25    27    1
    34    25    28    1
    35    32    33    1
    36    33    30    1
    37     6     1   ar
    38    13     9   ar
    39    18    14   ar
    40    10     4    1
    41    24    19   ar
