@<TRIPOS>MOLECULE
*****
 66 72 0 0 0
SMALL
GASTEIGER

@<TRIPOS>ATOM
      1 N         143.3623  139.9334  159.2947 N.pl3   1  UNL1       -0.1652
      2 C         143.0608  139.4642  157.9023 C.2     1  UNL1        0.4202
      3 N         143.4985  138.1638  157.2961 N.am    1  UNL1        0.0033
      4 N         142.2449  140.5234  157.2225 N.2     1  UNL1       -0.0735
      5 C         142.0420  141.6474  158.1949 C.2     1  UNL1        0.1721
      6 C         141.3177  142.9559  158.0797 C.3     1  UNL1        0.0980
      7 C         141.2839  143.8997  159.2451 C.2     1  UNL1        0.0416
      8 C         141.9745  143.5350  160.5257 C.2     1  UNL1        0.0404
      9 C         142.6988  142.2266  160.6410 C.2     1  UNL1        0.1696
     10 C         142.7326  141.2828  159.4756 C.2     1  UNL1        0.1765
     11 C         140.5596  145.2081  159.1298 C.2     1  UNL1        0.2393
     12 N         139.8194  145.7622  160.3109 N.am    1  UNL1       -0.3256
     13 O         140.5755  145.9625  157.8333 O.2     1  UNL1       -0.2707
     14 H         139.8090  145.2671  161.1618 H       1  UNL1        0.1452
     15 H         139.3440  146.6210  160.2352 H       1  UNL1        0.1452
     16 C         143.1193  137.8295  155.8838 C.2     1  UNL1        0.3589
     17 O         143.2400  138.8686  154.8088 O.2     1  UNL1       -0.2466
     18 C         142.6193  136.4560  155.5466 C.ar    1  UNL1        0.1515
     19 C         143.4693  135.2498  155.2775 C.ar    1  UNL1        0.0414
     20 C         142.5569  134.0959  154.9839 C.ar    1  UNL1        0.0806
     21 C         142.9836  132.6949  154.6595 C.3     1  UNL1        0.0540
     22 N         141.1430  134.5891  155.0715 N.ar    1  UNL1       -0.1735
     23 N         141.1816  136.0477  155.4193 N.ar    1  UNL1       -0.2452
     24 C         139.9914  136.9411  155.6069 C.3     1  UNL1        0.1277
     25 C         139.7754  137.6373  156.9179 C.3     1  UNL1        0.0284
     26 C         144.1543  139.1848  160.3254 C.3     1  UNL1        0.1991
     27 C         143.6661  138.8398  162.8537 C.2     1  UNL1        0.0131
     28 C         143.4478  138.4458  161.4230 C.2     1  UNL1        0.0131
     29 C         142.9596  138.1008  163.9514 C.3     1  UNL1        0.1991
     30 N         140.0678  138.9491  162.6994 N.am    1  UNL1        0.0033
     31 C         140.5062  139.1484  164.1200 C.2     1  UNL1        0.4202
     32 N         139.6924  139.7726  165.2146 N.2     1  UNL1       -0.0735
     33 C         140.5186  139.7685  166.4665 C.2     1  UNL1        0.1721
     34 C         140.2361  140.2545  167.8572 C.3     1  UNL1        0.0980
     35 C         141.2780  140.1137  168.9270 C.2     1  UNL1        0.0416
     36 C         142.6024  139.4869  168.6062 C.2     1  UNL1        0.0404
     37 C         142.8850  139.0010  167.2155 C.2     1  UNL1        0.1698
     38 C         141.8431  139.1417  166.1457 C.2     1  UNL1        0.1765
     39 N         141.8354  138.7585  164.6955 N.pl3   1  UNL1       -0.1652
     40 C         140.9954  140.5997  170.3177 C.2     1  UNL1        0.2393
     41 N         142.0794  140.5785  171.3543 N.am    1  UNL1       -0.3256
     42 O         139.6289  141.1069  170.6718 O.2     1  UNL1       -0.2707
     43 H         142.9763  140.2456  171.1219 H       1  UNL1        0.1452
     44 H         141.8940  140.8975  172.2671 H       1  UNL1        0.1452
     45 O         144.2095  138.3742  166.8947 O.2     1  UNL1       -0.4687
     46 C         144.5081  136.9768  167.3509 C.3     1  UNL1        0.2526
     47 C         138.7016  139.3923  162.2670 C.2     1  UNL1        0.3589
     48 O         137.6062  138.3826  162.0915 O.2     1  UNL1       -0.2466
     49 N         138.4079  141.5136  160.6674 N.ar    1  UNL1       -0.2452
     50 N         138.0982  142.9661  160.8781 N.ar    1  UNL1       -0.1735
     51 C         137.9296  143.1953  162.3508 C.ar    1  UNL1        0.0806
     52 C         137.6113  144.5052  163.0086 C.3     1  UNL1        0.0540
     53 C         138.1351  141.8844  163.0505 C.ar    1  UNL1        0.0414
     54 C         138.4307  140.8451  162.0100 C.ar    1  UNL1        0.1515
     55 C         137.9491  141.3396  158.1161 C.3     1  UNL1        0.0284
     56 C         138.6519  140.8468  159.3461 C.3     1  UNL1        0.1277
     57 O         143.3894  141.8619  161.9217 O.2     1  UNL1       -0.4727
     58 C         144.8144  142.2715  162.1484 C.3     1  UNL1        0.2070
     59 C         145.4200  142.1547  163.5157 C.3     1  UNL1        0.0646
     60 C         144.8624  142.9567  164.6540 C.3     1  UNL1        0.0761
     61 N         143.4664  143.5002  164.5755 N.3     1  UNL1       -0.2683
     62 C         143.2092  144.8112  163.8937 C.3     1  UNL1        0.1046
     63 C         141.8132  145.3546  163.8153 C.3     1  UNL1        0.1595
     64 O         140.6746  144.5869  164.4187 O.3     1  UNL1       -0.3508
     65 C         140.9319  143.2758  165.1006 C.3     1  UNL1        0.1595
     66 C         142.3278  142.7324  165.1790 C.3     1  UNL1        0.1046
@<TRIPOS>BOND
     1    55    56    1
     2    56    49    1
     3    49    50   ar
     4    50    51   ar
     5    51    52    1
     6    51    53   ar
     7    53    54   ar
     8    54    47    1
     9    47    48    2
    10    47    30    1
    11    30    31    2
    12    31    32    1
    13    32    33    2
    14    33    34    1
    15    34    35    1
    16    35    40    1
    17    40    41   am
    18    40    42    2
    19    35    36    2
    20    36    37    1
    21    37    45    1
    22    45    46    1
    23    37    38    2
    24    38    39    1
    25    39    29    1
    26    29    27    1
    27    27    28    2
    28    28    26    1
    29    26     1    1
    30     1     2    1
    31     2     3    2
    32     3    16    1
    33    16    17    2
    34    16    18    1
    35    18    19   ar
    36    19    20   ar
    37    20    21    1
    38    20    22   ar
    39    22    23   ar
    40    23    24    1
    41    24    25    1
    42     2     4    1
    43     4     5    2
    44     5     6    1
    45     6     7    1
    46     7    11    1
    47    11    12   am
    48    11    13    2
    49     7     8    2
    50     8     9    1
    51     9    57    1
    52    57    58    1
    53    58    59    1
    54    59    60    1
    55    60    61    1
    56    61    62    1
    57    62    63    1
    58    63    64    1
    59    64    65    1
    60    65    66    1
    61     9    10    2
    62    54    49   ar
    63    39    31    1
    64    10     1    1
    65    38    33    1
    66    23    18   ar
    67    10     5    1
    68    66    61    1
    69    41    43    1
    70    41    44    1
    71    12    14    1
    72    12    15    1
@<TRIPOS>MOLECULE
*****
 66 72 0 0 0
SMALL
GASTEIGER

@<TRIPOS>ATOM
      1 N         138.9491  139.6367  159.9855 N.pl3   1  UNL1       -0.1652
      2 C         139.9377  139.2040  158.9437 C.2     1  UNL1        0.4202
      3 N         140.1233  137.8067  158.4308 N.am    1  UNL1        0.0033
      4 N         140.7082  140.4139  158.5048 N.2     1  UNL1       -0.0735
      5 C         140.1956  141.5944  159.2755 C.2     1  UNL1        0.1721
      6 C         140.5784  143.0447  159.2621 C.3     1  UNL1        0.0980
      7 C         139.8741  144.0146  160.1639 C.2     1  UNL1        0.0416
      8 C         138.7870  143.5343  161.0790 C.2     1  UNL1        0.0404
      9 C         138.4042  142.0840  161.0924 C.2     1  UNL1        0.1696
     10 C         139.1085  141.1140  160.1906 C.2     1  UNL1        0.1765
     11 C         140.2570  145.4648  160.1505 C.2     1  UNL1        0.2393
     12 N         141.5982  145.8817  159.6239 N.am    1  UNL1       -0.3256
     13 O         139.2985  146.4983  160.6638 O.2     1  UNL1       -0.2707
     14 H         142.2272  145.2034  159.2870 H       1  UNL1        0.1452
     15 H         141.8494  146.8335  159.6151 H       1  UNL1        0.1452
     16 C         141.1577  137.5241  157.3818 C.2     1  UNL1        0.3589
     17 O         142.6081  137.7724  157.6726 O.2     1  UNL1       -0.2466
     18 C         140.7415  136.9931  156.0421 C.ar    1  UNL1        0.1515
     19 C         139.7468  137.6245  155.1137 C.ar    1  UNL1        0.0414
     20 C         139.6375  136.7591  153.8933 C.ar    1  UNL1        0.0806
     21 C         138.7559  137.0150  152.7071 C.3     1  UNL1        0.0540
     22 N         140.5646  135.5929  154.0676 N.ar    1  UNL1       -0.1735
     23 N         141.2469  135.7375  155.3956 N.ar    1  UNL1       -0.2452
     24 C         142.2572  134.7924  155.9752 C.3     1  UNL1        0.1277
     25 C         143.7207  135.0222  155.7399 C.3     1  UNL1        0.0284
     26 C         137.9726  138.7481  160.6974 C.3     1  UNL1        0.1991
     27 C         139.4718  138.0682  162.7073 C.2     1  UNL1        0.0131
     28 C         138.1352  138.4783  162.1639 C.2     1  UNL1        0.0131
     29 C         139.6345  137.7984  164.1739 C.3     1  UNL1        0.1991
     30 N         142.6466  138.7543  163.3595 N.am    1  UNL1        0.0033
     31 C         141.9227  139.1042  164.6258 C.2     1  UNL1        0.4202
     32 N         142.4562  139.9548  165.7401 N.2     1  UNL1       -0.0735
     33 C         141.4014  140.0412  166.8032 C.2     1  UNL1        0.1721
     34 C         141.3672  140.7429  168.1284 C.3     1  UNL1        0.0980
     35 C         140.1476  140.6472  168.9964 C.2     1  UNL1        0.0416
     36 C         138.9622  139.8499  168.5391 C.2     1  UNL1        0.0404
     37 C         138.9964  139.1483  167.2138 C.2     1  UNL1        0.1698
     38 C         140.2160  139.2439  166.3458 C.2     1  UNL1        0.1765
     39 N         140.5382  138.6648  165.0001 N.pl3   1  UNL1       -0.1652
     40 C         140.1133  141.3489  170.3218 C.2     1  UNL1        0.2393
     41 N         141.3113  141.3074  171.2235 N.am    1  UNL1       -0.3256
     42 O         138.8812  142.0921  170.7453 O.2     1  UNL1       -0.2707
     43 H         142.1200  140.8196  170.9455 H       1  UNL1        0.1452
     44 H         141.2888  141.7679  172.0934 H       1  UNL1        0.1452
     45 O         137.8110  138.3510  166.7564 O.2     1  UNL1       -0.4687
     46 C         136.8353  137.8142  167.7613 C.3     1  UNL1        0.2526
     47 C         144.0351  139.2698  163.1224 C.2     1  UNL1        0.3589
     48 O         145.1765  138.7587  163.9507 O.2     1  UNL1       -0.2466
     49 N         145.0831  141.5549  162.2141 N.ar    1  UNL1       -0.2452
     50 N         145.0678  142.2810  160.9016 N.ar    1  UNL1       -0.1735
     51 C         144.2574  141.4713  159.9334 C.ar    1  UNL1        0.0806
     52 C         143.9810  141.8258  158.5023 C.3     1  UNL1        0.0540
     53 C         143.7718  140.2447  160.6474 C.ar    1  UNL1        0.0414
     54 C         144.2822  140.2964  162.0570 C.ar    1  UNL1        0.1515
     55 C         144.9760  142.5215  164.6233 C.3     1  UNL1        0.0284
     56 C         145.7775  142.0078  163.4642 C.3     1  UNL1        0.1277
     57 O         137.3171  141.6037  162.0075 O.2     1  UNL1       -0.4727
     58 C         137.2618  142.0887  163.4258 C.3     1  UNL1        0.2070
     59 C         138.2114  141.5337  164.4458 C.3     1  UNL1        0.0646
     60 C         139.1858  142.4416  165.1357 C.3     1  UNL1        0.0761
     61 N         140.1970  143.2054  164.3331 N.3     1  UNL1       -0.2683
     62 C         140.2242  144.7040  164.3915 C.3     1  UNL1        0.1046
     63 C         141.2354  145.4677  163.5889 C.3     1  UNL1        0.1595
     64 O         142.2195  144.7327  162.7279 O.3     1  UNL1       -0.3508
     65 C         142.1924  143.2341  162.6695 C.3     1  UNL1        0.1595
     66 C         141.1811  142.4704  163.4721 C.3     1  UNL1        0.1046
@<TRIPOS>BOND
     1    55    56    1
     2    56    49    1
     3    49    50   ar
     4    50    51   ar
     5    51    52    1
     6    51    53   ar
     7    53    54   ar
     8    54    47    1
     9    47    48    2
    10    47    30    1
    11    30    31    2
    12    31    32    1
    13    32    33    2
    14    33    34    1
    15    34    35    1
    16    35    40    1
    17    40    41   am
    18    40    42    2
    19    35    36    2
    20    36    37    1
    21    37    45    1
    22    45    46    1
    23    37    38    2
    24    38    39    1
    25    39    29    1
    26    29    27    1
    27    27    28    2
    28    28    26    1
    29    26     1    1
    30     1     2    1
    31     2     3    2
    32     3    16    1
    33    16    17    2
    34    16    18    1
    35    18    19   ar
    36    19    20   ar
    37    20    21    1
    38    20    22   ar
    39    22    23   ar
    40    23    24    1
    41    24    25    1
    42     2     4    1
    43     4     5    2
    44     5     6    1
    45     6     7    1
    46     7    11    1
    47    11    12   am
    48    11    13    2
    49     7     8    2
    50     8     9    1
    51     9    57    1
    52    57    58    1
    53    58    59    1
    54    59    60    1
    55    60    61    1
    56    61    62    1
    57    62    63    1
    58    63    64    1
    59    64    65    1
    60    65    66    1
    61     9    10    2
    62    54    49   ar
    63    39    31    1
    64    10     1    1
    65    38    33    1
    66    23    18   ar
    67    10     5    1
    68    66    61    1
    69    41    43    1
    70    41    44    1
    71    12    14    1
    72    12    15    1
@<TRIPOS>MOLECULE
*****
 66 72 0 0 0
SMALL
GASTEIGER

@<TRIPOS>ATOM
      1 N         138.7540  142.2317  163.5212 N.pl3   1  UNL1       -0.1652
      2 C         139.4445  143.4006  162.8834 C.2     1  UNL1        0.4202
      3 N         139.0835  144.0284  161.5699 N.am    1  UNL1        0.0033
      4 N         140.5594  143.8315  163.7897 N.2     1  UNL1       -0.0735
      5 C         140.5579  142.9288  164.9877 C.2     1  UNL1        0.1721
      6 C         141.4285  142.8793  166.2083 C.3     1  UNL1        0.0980
      7 C         141.1832  141.8413  167.2629 C.2     1  UNL1        0.0416
      8 C         140.0674  140.8526  167.0970 C.2     1  UNL1        0.0404
      9 C         139.1969  140.9020  165.8765 C.2     1  UNL1        0.1696
     10 C         139.4421  141.9401  164.8218 C.2     1  UNL1        0.1765
     11 C         142.0537  141.7919  168.4834 C.2     1  UNL1        0.2393
     12 N         143.3705  142.5102  168.4951 N.am    1  UNL1       -0.3256
     13 O         141.6075  141.0242  169.6924 O.2     1  UNL1       -0.2707
     14 H         143.6634  143.0141  167.7016 H       1  UNL1        0.1452
     15 H         143.9419  142.4778  169.2961 H       1  UNL1        0.1452
     16 C         139.8694  145.1986  161.0568 C.2     1  UNL1        0.3589
     17 O         139.7677  146.5289  161.7424 O.2     1  UNL1       -0.2466
     18 C         140.7568  145.0385  159.8581 C.ar    1  UNL1        0.1515
     19 C         140.4897  145.5794  158.4848 C.ar    1  UNL1        0.0414
     20 C         141.6350  145.1845  157.6002 C.ar    1  UNL1        0.0806
     21 C         141.7799  145.5164  156.1446 C.3     1  UNL1        0.0540
     22 N         142.6099  144.3996  158.4269 N.ar    1  UNL1       -0.1735
     23 N         142.0672  144.3093  159.8223 N.ar    1  UNL1       -0.2452
     24 C         142.7201  143.6123  160.9789 C.3     1  UNL1        0.1277
     25 C         144.0067  142.8680  160.7767 C.3     1  UNL1        0.0284
     26 C         137.5813  141.4854  162.9575 C.3     1  UNL1        0.1991
     27 C         138.5912  140.4824  160.7841 C.2     1  UNL1        0.0131
     28 C         137.8049  140.3122  162.0501 C.2     1  UNL1        0.0131
     29 C         138.8148  139.3092  159.8766 C.3     1  UNL1        0.1991
     30 N         136.8871  140.5817  157.5713 N.am    1  UNL1        0.0033
     31 C         138.3005  140.1168  157.3810 C.2     1  UNL1        0.4202
     32 N         139.0760  140.1552  156.0976 N.2     1  UNL1       -0.0735
     33 C         140.4413  139.5941  156.3639 C.2     1  UNL1        0.1721
     34 C         141.6311  139.3841  155.4750 C.3     1  UNL1        0.0980
     35 C         142.8893  138.7889  156.0342 C.2     1  UNL1        0.0416
     36 C         142.9576  138.4036  157.4822 C.2     1  UNL1        0.0404
     37 C         141.7678  138.6136  158.3712 C.2     1  UNL1        0.1698
     38 C         140.5097  139.2088  157.8120 C.2     1  UNL1        0.1765
     39 N         139.1866  139.5319  158.4405 N.pl3   1  UNL1       -0.1652
     40 C         144.0792  138.5789  155.1452 C.2     1  UNL1        0.2393
     41 N         143.8860  138.3465  153.6760 N.am    1  UNL1       -0.3256
     42 O         145.4622  138.6013  155.7256 O.2     1  UNL1       -0.2707
     43 H         142.9783  138.3319  153.2951 H       1  UNL1        0.1452
     44 H         144.6670  138.2087  153.0926 H       1  UNL1        0.1452
     45 O         141.8362  138.2284  159.8192 O.2     1  UNL1       -0.4687
     46 C         143.0971  137.6409  160.3803 C.3     1  UNL1        0.2526
     47 C         136.1212  141.1478  156.4125 C.2     1  UNL1        0.3589
     48 O         134.7778  140.5847  156.0545 O.2     1  UNL1       -0.2466
     49 N         137.0119  142.2478  154.1450 N.ar    1  UNL1       -0.2452
     50 N         137.5712  143.5864  153.7636 N.ar    1  UNL1       -0.1735
     51 C         137.6037  144.4429  154.9946 C.ar    1  UNL1        0.0806
     52 C         138.0900  145.8598  155.0703 C.3     1  UNL1        0.0540
     53 C         137.0645  143.6336  156.1368 C.ar    1  UNL1        0.0414
     54 C         136.6987  142.2770  155.6116 C.ar    1  UNL1        0.1515
     55 C         135.5202  140.9573  152.4540 C.3     1  UNL1        0.0284
     56 C         136.8025  141.0843  153.2217 C.3     1  UNL1        0.1277
     57 O         138.0811  139.9133  165.7105 O.2     1  UNL1       -0.4727
     58 C         138.3488  138.4463  165.8720 C.3     1  UNL1        0.2070
     59 C         138.9423  137.6630  164.7388 C.3     1  UNL1        0.0646
     60 C         140.4160  137.3846  164.7103 C.3     1  UNL1        0.0761
     61 N         141.3823  138.4902  164.4038 N.3     1  UNL1       -0.2683
     62 C         141.2234  139.2993  163.1508 C.3     1  UNL1        0.1046
     63 C         142.1897  140.4049  162.8443 C.3     1  UNL1        0.1595
     64 O         143.3150  140.7013  163.7908 O.3     1  UNL1       -0.3508
     65 C         143.4740  139.8921  165.0438 C.3     1  UNL1        0.1595
     66 C         142.5077  138.7866  165.3503 C.3     1  UNL1        0.1046
@<TRIPOS>BOND
     1    55    56    1
     2    56    49    1
     3    49    50   ar
     4    50    51   ar
     5    51    52    1
     6    51    53   ar
     7    53    54   ar
     8    54    47    1
     9    47    48    2
    10    47    30    1
    11    30    31    2
    12    31    32    1
    13    32    33    2
    14    33    34    1
    15    34    35    1
    16    35    40    1
    17    40    41   am
    18    40    42    2
    19    35    36    2
    20    36    37    1
    21    37    45    1
    22    45    46    1
    23    37    38    2
    24    38    39    1
    25    39    29    1
    26    29    27    1
    27    27    28    2
    28    28    26    1
    29    26     1    1
    30     1     2    1
    31     2     3    2
    32     3    16    1
    33    16    17    2
    34    16    18    1
    35    18    19   ar
    36    19    20   ar
    37    20    21    1
    38    20    22   ar
    39    22    23   ar
    40    23    24    1
    41    24    25    1
    42     2     4    1
    43     4     5    2
    44     5     6    1
    45     6     7    1
    46     7    11    1
    47    11    12   am
    48    11    13    2
    49     7     8    2
    50     8     9    1
    51     9    57    1
    52    57    58    1
    53    58    59    1
    54    59    60    1
    55    60    61    1
    56    61    62    1
    57    62    63    1
    58    63    64    1
    59    64    65    1
    60    65    66    1
    61     9    10    2
    62    54    49   ar
    63    39    31    1
    64    10     1    1
    65    38    33    1
    66    23    18   ar
    67    10     5    1
    68    66    61    1
    69    41    43    1
    70    41    44    1
    71    12    14    1
    72    12    15    1
@<TRIPOS>MOLECULE
*****
 66 72 0 0 0
SMALL
GASTEIGER

@<TRIPOS>ATOM
      1 N         143.5042  140.2255  159.1940 N.pl3   1  UNL1       -0.1652
      2 C         143.2572  139.7990  157.7774 C.2     1  UNL1        0.4202
      3 N         143.7553  138.5373  157.1370 N.am    1  UNL1        0.0033
      4 N         142.4245  140.8554  157.1136 N.2     1  UNL1       -0.0735
      5 C         142.1570  141.9349  158.1201 C.2     1  UNL1        0.1721
      6 C         141.3919  143.2222  158.0319 C.3     1  UNL1        0.0980
      7 C         141.2942  144.1201  159.2294 C.2     1  UNL1        0.0416
      8 C         141.9614  143.7309  160.5152 C.2     1  UNL1        0.0404
      9 C         142.7265  142.4437  160.6034 C.2     1  UNL1        0.1696
     10 C         142.8243  141.5457  159.4059 C.2     1  UNL1        0.1765
     11 C         140.5291  145.4073  159.1412 C.2     1  UNL1        0.2393
     12 N         139.7265  145.8847  160.3150 N.am    1  UNL1       -0.3256
     13 O         140.5667  146.2171  157.8791 O.2     1  UNL1       -0.2707
     14 H         139.7018  145.3532  161.1433 H       1  UNL1        0.1452
     15 H         139.2243  146.7296  160.2570 H       1  UNL1        0.1452
     16 C         143.4265  138.2437  155.7032 C.2     1  UNL1        0.3589
     17 O         144.3814  138.6434  154.6176 O.2     1  UNL1       -0.2466
     18 C         142.1428  137.5503  155.3550 C.ar    1  UNL1        0.1515
     19 C         140.8393  138.2184  155.0315 C.ar    1  UNL1        0.0414
     20 C         139.8280  137.1481  154.7458 C.ar    1  UNL1        0.0806
     21 C         138.3907  137.3688  154.3778 C.3     1  UNL1        0.0540
     22 N         140.5065  135.8184  154.8926 N.ar    1  UNL1       -0.1735
     23 N         141.9370  136.0669  155.2691 N.ar    1  UNL1       -0.2452
     24 C         142.9789  135.0165  155.5164 C.3     1  UNL1        0.1277
     25 C         143.2897  134.5839  156.9186 C.3     1  UNL1        0.0284
     26 C         144.2928  139.4655  160.2190 C.3     1  UNL1        0.1991
     27 C         143.5508  139.1749  162.6918 C.2     1  UNL1        0.0131
     28 C         143.5820  138.6756  161.2776 C.2     1  UNL1        0.0131
     29 C         142.8400  138.3850  163.7505 C.3     1  UNL1        0.1991
     30 N         140.0232  138.9840  162.2154 N.am    1  UNL1        0.0033
     31 C         140.2964  139.2031  163.6739 C.2     1  UNL1        0.4202
     32 N         139.3228  139.7360  164.6830 N.2     1  UNL1       -0.0735
     33 C         140.0158  139.7900  166.0122 C.2     1  UNL1        0.1721
     34 C         139.5514  140.2295  167.3691 C.3     1  UNL1        0.0980
     35 C         140.4889  140.1695  168.5384 C.2     1  UNL1        0.0416
     36 C         141.8908  139.6699  168.3509 C.2     1  UNL1        0.0404
     37 C         142.3552  139.2304  166.9940 C.2     1  UNL1        0.1698
     38 C         141.4177  139.2905  165.8247 C.2     1  UNL1        0.1765
     39 N         141.5911  138.9277  164.3796 N.pl3   1  UNL1       -0.1652
     40 C         140.0246  140.6090  169.8954 C.2     1  UNL1        0.2393
     41 N         140.0212  139.6372  171.0380 N.am    1  UNL1       -0.3256
     42 O         139.5636  142.0202  170.1096 O.2     1  UNL1       -0.2707
     43 H         140.3237  138.7110  170.8974 H       1  UNL1        0.1452
     44 H         139.7164  139.9256  171.9286 H       1  UNL1        0.1452
     45 O         143.7571  138.7309  166.8065 O.2     1  UNL1       -0.4687
     46 C         144.1000  137.3118  167.1508 C.3     1  UNL1        0.2526
     47 C         138.6726  139.3070  161.6485 C.2     1  UNL1        0.3589
     48 O         137.5049  138.4099  161.9347 O.2     1  UNL1       -0.2466
     49 N         138.3151  141.9319  161.2917 N.ar    1  UNL1       -0.2452
     50 N         138.1665  142.8297  160.0993 N.ar    1  UNL1       -0.1735
     51 C         138.2491  141.9798  158.8660 C.ar    1  UNL1        0.0806
     52 C         138.1496  142.4674  157.4510 C.3     1  UNL1        0.0540
     53 C         138.4487  140.5567  159.2962 C.ar    1  UNL1        0.0414
     54 C         138.4895  140.5271  160.7954 C.ar    1  UNL1        0.1515
     55 C         137.7091  143.6927  163.1033 C.3     1  UNL1        0.0284
     56 C         138.2931  142.3631  162.7282 C.3     1  UNL1        0.1277
     57 O         143.3938  142.0545  161.8892 O.2     1  UNL1       -0.4727
     58 C         144.8206  142.4425  162.1411 C.3     1  UNL1        0.2070
     59 C         145.3992  142.3192  163.5195 C.3     1  UNL1        0.0646
     60 C         144.8534  143.1544  164.6395 C.3     1  UNL1        0.0761
     61 N         143.4379  143.6480  164.5861 N.3     1  UNL1       -0.2683
     62 C         142.3407  142.8497  165.2254 C.3     1  UNL1        0.1046
     63 C         140.9252  143.3433  165.1720 C.3     1  UNL1        0.1595
     64 O         140.6070  144.6351  164.4793 O.3     1  UNL1       -0.3508
     65 C         141.7043  145.4334  163.8399 C.3     1  UNL1        0.1595
     66 C         143.1197  144.9398  163.8934 C.3     1  UNL1        0.1046
@<TRIPOS>BOND
     1    55    56    1
     2    56    49    1
     3    49    50   ar
     4    50    51   ar
     5    51    52    1
     6    51    53   ar
     7    53    54   ar
     8    54    47    1
     9    47    48    2
    10    47    30    1
    11    30    31    2
    12    31    32    1
    13    32    33    2
    14    33    34    1
    15    34    35    1
    16    35    40    1
    17    40    41   am
    18    40    42    2
    19    35    36    2
    20    36    37    1
    21    37    45    1
    22    45    46    1
    23    37    38    2
    24    38    39    1
    25    39    29    1
    26    29    27    1
    27    27    28    2
    28    28    26    1
    29    26     1    1
    30     1     2    1
    31     2     3    2
    32     3    16    1
    33    16    17    2
    34    16    18    1
    35    18    19   ar
    36    19    20   ar
    37    20    21    1
    38    20    22   ar
    39    22    23   ar
    40    23    24    1
    41    24    25    1
    42     2     4    1
    43     4     5    2
    44     5     6    1
    45     6     7    1
    46     7    11    1
    47    11    12   am
    48    11    13    2
    49     7     8    2
    50     8     9    1
    51     9    57    1
    52    57    58    1
    53    58    59    1
    54    59    60    1
    55    60    61    1
    56    61    62    1
    57    62    63    1
    58    63    64    1
    59    64    65    1
    60    65    66    1
    61     9    10    2
    62    54    49   ar
    63    39    31    1
    64    10     1    1
    65    38    33    1
    66    23    18   ar
    67    10     5    1
    68    66    61    1
    69    41    43    1
    70    41    44    1
    71    12    14    1
    72    12    15    1
@<TRIPOS>MOLECULE
*****
 66 72 0 0 0
SMALL
GASTEIGER

@<TRIPOS>ATOM
      1 N         141.4535  138.5309  158.8242 N.pl3   1  UNL1       -0.1652
      2 C         142.1385  137.9398  157.6279 C.2     1  UNL1        0.4202
      3 N         143.1808  136.8614  157.6521 N.am    1  UNL1        0.0033
      4 N         141.5983  138.6165  156.4030 N.2     1  UNL1       -0.0735
      5 C         140.5794  139.6258  156.8424 C.2     1  UNL1        0.1721
      6 C         139.7215  140.5863  156.0733 C.3     1  UNL1        0.0980
      7 C         138.7741  141.4938  156.8005 C.2     1  UNL1        0.0416
      8 C         138.6846  141.4409  158.2969 C.2     1  UNL1        0.0404
      9 C         139.5425  140.4805  159.0661 C.2     1  UNL1        0.1696
     10 C         140.4899  139.5729  158.3388 C.2     1  UNL1        0.1765
     11 C         137.9162  142.4542  156.0313 C.2     1  UNL1        0.2393
     12 N         136.5426  142.7960  156.5276 N.am    1  UNL1       -0.3256
     13 O         138.4320  143.0728  154.7659 O.2     1  UNL1       -0.2707
     14 H         136.2041  142.3900  157.3581 H       1  UNL1        0.1452
     15 H         135.9795  143.4263  156.0227 H       1  UNL1        0.1452
     16 C         143.7794  136.3680  156.3682 C.2     1  UNL1        0.3589
     17 O         144.8163  137.1885  155.6601 O.2     1  UNL1       -0.2466
     18 C         143.3411  135.0540  155.7925 C.ar    1  UNL1        0.1515
     19 C         142.6554  134.8541  154.4735 C.ar    1  UNL1        0.0414
     20 C         142.4020  133.3858  154.3006 C.ar    1  UNL1        0.0806
     21 C         141.7364  132.7387  153.1224 C.3     1  UNL1        0.0540
     22 N         142.9312  132.6782  155.5127 N.ar    1  UNL1       -0.1735
     23 N         143.5115  133.7092  156.4348 N.ar    1  UNL1       -0.2452
     24 C         144.1502  133.4423  157.7655 C.3     1  UNL1        0.1277
     25 C         145.1820  132.3617  157.8990 C.3     1  UNL1        0.0284
     26 C         141.6905  138.1473  160.2549 C.3     1  UNL1        0.1991
     27 C         142.7607  138.6956  162.5578 C.2     1  UNL1        0.0131
     28 C         142.7081  138.8877  161.0711 C.2     1  UNL1        0.0131
     29 C         143.7784  139.4360  163.3741 C.3     1  UNL1        0.1991
     30 N         143.3631  142.5224  162.3988 N.am    1  UNL1        0.0033
     31 C         143.1627  142.0034  163.7918 C.2     1  UNL1        0.4202
     32 N         142.7361  142.8118  164.9811 N.2     1  UNL1       -0.0735
     33 C         142.6635  141.8929  166.1644 C.2     1  UNL1        0.1721
     34 C         142.2991  142.1316  167.5998 C.3     1  UNL1        0.0980
     35 C         142.3163  140.9939  168.5771 C.2     1  UNL1        0.0416
     36 C         142.6979  139.6175  168.1192 C.2     1  UNL1        0.0404
     37 C         143.0623  139.3787  166.6838 C.2     1  UNL1        0.1698
     38 C         143.0451  140.5164  165.7065 C.2     1  UNL1        0.1765
     39 N         143.3536  140.5847  164.2401 N.pl3   1  UNL1       -0.1652
     40 C         141.9520  141.2327  170.0125 C.2     1  UNL1        0.2393
     41 N         141.0299  140.2843  170.7199 N.am    1  UNL1       -0.3256
     42 O         142.5096  142.4197  170.7404 O.2     1  UNL1       -0.2707
     43 H         140.6639  139.5052  170.2422 H       1  UNL1        0.1452
     44 H         140.7908  140.4409  171.6620 H       1  UNL1        0.1452
     45 O         143.4439  138.0023  166.2259 O.2     1  UNL1       -0.4687
     46 C         144.5080  137.2372  166.9555 C.3     1  UNL1        0.2526
     47 C         143.1328  143.9739  162.0989 C.2     1  UNL1        0.3589
     48 O         144.0466  145.0135  162.6773 O.2     1  UNL1       -0.2466
     49 N         140.7361  145.0773  161.6709 N.ar    1  UNL1       -0.2452
     50 N         139.8697  145.2978  160.4664 N.ar    1  UNL1       -0.1735
     51 C         140.5870  144.7426  159.2717 C.ar    1  UNL1        0.0806
     52 C         140.0831  144.7497  157.8588 C.3     1  UNL1        0.0540
     53 C         141.8967  144.1791  159.7377 C.ar    1  UNL1        0.0414
     54 C         141.9888  144.3860  161.2206 C.ar    1  UNL1        0.1515
     55 C         139.7088  144.5125  163.9894 C.3     1  UNL1        0.0284
     56 C         140.4074  145.4780  163.0785 C.3     1  UNL1        0.1277
     57 O         139.4530  140.4276  160.5624 O.2     1  UNL1       -0.4727
     58 C         139.3311  141.6972  161.3519 C.3     1  UNL1        0.2070
     59 C         137.9829  142.1691  161.8098 C.3     1  UNL1        0.0646
     60 C         137.3081  141.4994  162.9700 C.3     1  UNL1        0.0761
     61 N         138.0941  140.6005  163.8780 N.3     1  UNL1       -0.2683
     62 C         138.3532  139.1768  163.4833 C.3     1  UNL1        0.1046
     63 C         139.1392  138.2779  164.3912 C.3     1  UNL1        0.1595
     64 O         139.6660  138.8028  165.6939 O.3     1  UNL1       -0.3508
     65 C         139.4069  140.2267  166.0886 C.3     1  UNL1        0.1595
     66 C         138.6209  141.1255  165.1806 C.3     1  UNL1        0.1046
@<TRIPOS>BOND
     1    55    56    1
     2    56    49    1
     3    49    50   ar
     4    50    51   ar
     5    51    52    1
     6    51    53   ar
     7    53    54   ar
     8    54    47    1
     9    47    48    2
    10    47    30    1
    11    30    31    2
    12    31    32    1
    13    32    33    2
    14    33    34    1
    15    34    35    1
    16    35    40    1
    17    40    41   am
    18    40    42    2
    19    35    36    2
    20    36    37    1
    21    37    45    1
    22    45    46    1
    23    37    38    2
    24    38    39    1
    25    39    29    1
    26    29    27    1
    27    27    28    2
    28    28    26    1
    29    26     1    1
    30     1     2    1
    31     2     3    2
    32     3    16    1
    33    16    17    2
    34    16    18    1
    35    18    19   ar
    36    19    20   ar
    37    20    21    1
    38    20    22   ar
    39    22    23   ar
    40    23    24    1
    41    24    25    1
    42     2     4    1
    43     4     5    2
    44     5     6    1
    45     6     7    1
    46     7    11    1
    47    11    12   am
    48    11    13    2
    49     7     8    2
    50     8     9    1
    51     9    57    1
    52    57    58    1
    53    58    59    1
    54    59    60    1
    55    60    61    1
    56    61    62    1
    57    62    63    1
    58    63    64    1
    59    64    65    1
    60    65    66    1
    61     9    10    2
    62    54    49   ar
    63    39    31    1
    64    10     1    1
    65    38    33    1
    66    23    18   ar
    67    10     5    1
    68    66    61    1
    69    41    43    1
    70    41    44    1
    71    12    14    1
    72    12    15    1
@<TRIPOS>MOLECULE
*****
 66 72 0 0 0
SMALL
GASTEIGER

@<TRIPOS>ATOM
      1 N         140.8527  138.5263  158.0149 N.pl3   1  UNL1       -0.1652
      2 C         141.5331  137.5739  157.0769 C.2     1  UNL1        0.4202
      3 N         142.7356  136.7343  157.3918 N.am    1  UNL1        0.0033
      4 N         140.8000  137.6084  155.7686 N.2     1  UNL1       -0.0735
      5 C         139.6664  138.5822  155.8982 C.2     1  UNL1        0.1721
      6 C         138.6087  139.0257  154.9314 C.3     1  UNL1        0.0980
      7 C         137.5837  140.0364  155.3528 C.2     1  UNL1        0.0416
      8 C         137.6162  140.6037  156.7410 C.2     1  UNL1        0.0404
      9 C         138.6738  140.1602  157.7078 C.2     1  UNL1        0.1696
     10 C         139.6990  139.1495  157.2864 C.2     1  UNL1        0.1765
     11 C         136.5261  140.4798  154.3860 C.2     1  UNL1        0.2393
     12 N         135.9240  141.8483  154.5086 N.am    1  UNL1       -0.3256
     13 O         136.0704  139.5549  153.2965 O.2     1  UNL1       -0.2707
     14 H         136.2231  142.4554  155.2236 H       1  UNL1        0.1452
     15 H         135.2299  142.1393  153.8740 H       1  UNL1        0.1452
     16 C         143.3086  135.8232  156.3469 C.2     1  UNL1        0.3589
     17 O         144.3793  136.3220  155.4224 O.2     1  UNL1       -0.2466
     18 C         142.8109  134.4133  156.2267 C.ar    1  UNL1        0.1515
     19 C         141.7197  133.9384  155.3136 C.ar    1  UNL1        0.0414
     20 C         141.5514  132.4623  155.5209 C.ar    1  UNL1        0.0806
     21 C         140.5684  131.5788  154.8116 C.3     1  UNL1        0.0540
     22 N         142.5385  132.0250  156.5622 N.ar    1  UNL1       -0.1735
     23 N         143.3170  133.2308  156.9983 N.ar    1  UNL1       -0.2452
     24 C         144.4096  133.2505  158.0258 C.3     1  UNL1        0.1277
     25 C         145.4768  132.1967  158.0060 C.3     1  UNL1        0.0284
     26 C         141.2552  138.8063  159.4325 C.3     1  UNL1        0.1991
     27 C         142.8503  140.7524  158.7856 C.2     1  UNL1        0.0131
     28 C         141.9350  140.0981  159.7777 C.2     1  UNL1        0.0131
     29 C         143.5302  142.0442  159.1309 C.3     1  UNL1        0.1991
     30 N         143.1714  143.4767  162.0410 N.am    1  UNL1        0.0033
     31 C         142.5478  143.9276  160.7535 C.2     1  UNL1        0.4202
     32 N         141.6498  145.1161  160.5774 N.2     1  UNL1       -0.0735
     33 C         141.2597  145.1922  159.1311 C.2     1  UNL1        0.1721
     34 C         140.3912  146.1535  158.3750 C.3     1  UNL1        0.0980
     35 C         140.1796  145.9732  156.9010 C.2     1  UNL1        0.0416
     36 C         140.8365  144.8317  156.1831 C.2     1  UNL1        0.0404
     37 C         141.7050  143.8705  156.9391 C.2     1  UNL1        0.1698
     38 C         141.9166  144.0507  158.4131 C.2     1  UNL1        0.1765
     39 N         142.7127  143.2692  159.4158 N.pl3   1  UNL1       -0.1652
     40 C         139.3110  146.9345  156.1449 C.2     1  UNL1        0.2393
     41 N         138.7825  148.1624  156.8252 N.am    1  UNL1       -0.3256
     42 O         138.9711  146.6678  154.7085 O.2     1  UNL1       -0.2707
     43 H         139.0056  148.3374  157.7680 H       1  UNL1        0.1452
     44 H         138.2125  148.7933  156.3290 H       1  UNL1        0.1452
     45 O         142.3619  142.7290  156.2212 O.2     1  UNL1       -0.4687
     46 C         143.6591  142.9439  155.4994 C.3     1  UNL1        0.2526
     47 C         142.9144  144.2398  163.3065 C.2     1  UNL1        0.3589
     48 O         143.9028  145.2648  163.7782 O.2     1  UNL1       -0.2466
     49 N         141.5637  143.0986  165.3111 N.ar    1  UNL1       -0.2452
     50 N         140.1397  143.1266  165.7820 N.ar    1  UNL1       -0.1735
     51 C         139.3649  144.0231  164.8622 C.ar    1  UNL1        0.0806
     52 C         137.9019  144.3382  164.9638 C.3     1  UNL1        0.0540
     53 C         140.3100  144.5493  163.8229 C.ar    1  UNL1        0.0414
     54 C         141.6689  143.9779  164.1004 C.ar    1  UNL1        0.1515
     55 C         142.3845  141.2189  166.9057 C.3     1  UNL1        0.0284
     56 C         142.6854  142.3269  165.9405 C.3     1  UNL1        0.1277
     57 O         138.7064  140.7275  159.0960 O.2     1  UNL1       -0.4727
     58 C         138.9612  142.1912  159.3023 C.3     1  UNL1        0.2070
     59 C         138.8458  142.7865  160.6743 C.3     1  UNL1        0.0646
     60 C         137.9938  142.1186  161.7125 C.3     1  UNL1        0.0761
     61 N         138.6289  141.2548  162.7616 N.3     1  UNL1       -0.2683
     62 C         140.0830  140.9005  162.6620 C.3     1  UNL1        0.1046
     63 C         140.7181  140.0367  163.7111 C.3     1  UNL1        0.1595
     64 O         139.8990  139.5272  164.8598 O.3     1  UNL1       -0.3508
     65 C         138.4448  139.8815  164.9593 C.3     1  UNL1        0.1595
     66 C         137.8098  140.7452  163.9102 C.3     1  UNL1        0.1046
@<TRIPOS>BOND
     1    55    56    1
     2    56    49    1
     3    49    50   ar
     4    50    51   ar
     5    51    52    1
     6    51    53   ar
     7    53    54   ar
     8    54    47    1
     9    47    48    2
    10    47    30    1
    11    30    31    2
    12    31    32    1
    13    32    33    2
    14    33    34    1
    15    34    35    1
    16    35    40    1
    17    40    41   am
    18    40    42    2
    19    35    36    2
    20    36    37    1
    21    37    45    1
    22    45    46    1
    23    37    38    2
    24    38    39    1
    25    39    29    1
    26    29    27    1
    27    27    28    2
    28    28    26    1
    29    26     1    1
    30     1     2    1
    31     2     3    2
    32     3    16    1
    33    16    17    2
    34    16    18    1
    35    18    19   ar
    36    19    20   ar
    37    20    21    1
    38    20    22   ar
    39    22    23   ar
    40    23    24    1
    41    24    25    1
    42     2     4    1
    43     4     5    2
    44     5     6    1
    45     6     7    1
    46     7    11    1
    47    11    12   am
    48    11    13    2
    49     7     8    2
    50     8     9    1
    51     9    57    1
    52    57    58    1
    53    58    59    1
    54    59    60    1
    55    60    61    1
    56    61    62    1
    57    62    63    1
    58    63    64    1
    59    64    65    1
    60    65    66    1
    61     9    10    2
    62    54    49   ar
    63    39    31    1
    64    10     1    1
    65    38    33    1
    66    23    18   ar
    67    10     5    1
    68    66    61    1
    69    41    43    1
    70    41    44    1
    71    12    14    1
    72    12    15    1
@<TRIPOS>MOLECULE
*****
 66 72 0 0 0
SMALL
GASTEIGER

@<TRIPOS>ATOM
      1 N         139.8296  139.6334  158.5092 N.pl3   1  UNL1       -0.1652
      2 C         139.0590  140.2104  157.3589 C.2     1  UNL1        0.4202
      3 N         137.5821  140.0786  157.1327 N.am    1  UNL1        0.0033
      4 N         140.0246  140.9423  156.4746 N.2     1  UNL1       -0.0735
      5 C         141.3920  140.8176  157.0784 C.2     1  UNL1        0.1721
      6 C         142.7314  141.3361  156.6456 C.3     1  UNL1        0.0980
      7 C         143.9502  141.0458  157.4703 C.2     1  UNL1        0.0416
      8 C         143.8298  140.2369  158.7277 C.2     1  UNL1        0.0404
      9 C         142.4905  139.7184  159.1605 C.2     1  UNL1        0.1696
     10 C         141.2716  140.0087  158.3358 C.2     1  UNL1        0.1765
     11 C         145.2895  141.5644  157.0375 C.2     1  UNL1        0.2393
     12 N         145.8536  142.8030  157.6679 N.am    1  UNL1       -0.3256
     13 O         146.0648  140.8442  155.9742 O.2     1  UNL1       -0.2707
     14 H         145.3449  143.2757  158.3658 H       1  UNL1        0.1452
     15 H         146.7327  143.1434  157.3839 H       1  UNL1        0.1452
     16 C         136.9479  140.7133  155.9305 C.2     1  UNL1        0.3589
     17 O         136.1822  141.9949  156.0752 O.2     1  UNL1       -0.2466
     18 C         137.0795  140.0662  154.5837 C.ar    1  UNL1        0.1515
     19 C         136.7690  138.6351  154.2589 C.ar    1  UNL1        0.0414
     20 C         137.0424  138.4211  152.7996 C.ar    1  UNL1        0.0806
     21 C         136.8670  137.1341  152.0493 C.3     1  UNL1        0.0540
     22 N         137.5218  139.7199  152.2225 N.ar    1  UNL1       -0.1735
     23 N         137.5448  140.7367  153.3251 N.ar    1  UNL1       -0.2452
     24 C         137.9601  142.1719  153.1924 C.3     1  UNL1        0.1277
     25 C         137.0189  143.1724  152.5897 C.3     1  UNL1        0.0284
     26 C         139.2587  138.8234  159.6352 C.3     1  UNL1        0.1991
     27 C         138.7662  139.0518  162.1759 C.2     1  UNL1        0.0131
     28 C         138.5448  139.5066  160.7637 C.2     1  UNL1        0.0131
     29 C         138.0523  139.7350  163.3045 C.3     1  UNL1        0.1991
     30 N         138.8434  142.6596  162.0919 N.am    1  UNL1        0.0033
     31 C         139.0883  142.1917  163.4959 C.2     1  UNL1        0.4202
     32 N         139.7398  142.9858  164.5890 N.2     1  UNL1       -0.0735
     33 C         139.7788  142.1323  165.8219 C.2     1  UNL1        0.1721
     34 C         140.3045  142.3879  167.2033 C.3     1  UNL1        0.0980
     35 C         140.2028  141.3218  168.2535 C.2     1  UNL1        0.0416
     36 C         139.5754  140.0002  167.9224 C.2     1  UNL1        0.0404
     37 C         139.0497  139.7446  166.5410 C.2     1  UNL1        0.1698
     38 C         139.1514  140.8107  165.4908 C.2     1  UNL1        0.1765
     39 N         138.7246  140.8474  164.0532 N.pl3   1  UNL1       -0.1652
     40 C         140.7286  141.5773  169.6350 C.2     1  UNL1        0.2393
     41 N         142.2041  141.5185  169.8987 N.am    1  UNL1       -0.3256
     42 O         139.7789  141.8917  170.7527 O.2     1  UNL1       -0.2707
     43 H         142.8274  141.3122  169.1651 H       1  UNL1        0.1452
     44 H         142.5491  141.6862  170.8054 H       1  UNL1        0.1452
     45 O         138.4223  138.4230  166.2099 O.2     1  UNL1       -0.4687
     46 C         137.3345  137.8697  167.0819 C.3     1  UNL1        0.2526
     47 C         139.2643  144.0381  161.6767 C.2     1  UNL1        0.3589
     48 O         138.5722  145.2386  162.2512 O.2     1  UNL1       -0.2466
     49 N         141.8451  144.1550  160.9902 N.ar    1  UNL1       -0.2452
     50 N         142.5929  144.3879  159.7109 N.ar    1  UNL1       -0.1735
     51 C         141.5873  144.5930  158.6170 C.ar    1  UNL1        0.0806
     52 C         141.8966  144.8578  157.1733 C.3     1  UNL1        0.0540
     53 C         140.2179  144.4870  159.2202 C.ar    1  UNL1        0.0414
     54 C         140.3773  144.2163  160.6870 C.ar    1  UNL1        0.1515
     55 C         142.5168  145.0086  163.3503 C.3     1  UNL1        0.0284
     56 C         142.4575  143.9049  162.3364 C.3     1  UNL1        0.1277
     57 O         142.3700  138.9095  160.4180 O.2     1  UNL1       -0.4727
     58 C         143.5449  138.1232  160.9194 C.3     1  UNL1        0.2070
     59 C         143.9590  138.2282  162.3573 C.3     1  UNL1        0.0646
     60 C         143.1632  139.0734  163.3072 C.3     1  UNL1        0.0761
     61 N         143.7454  140.3462  163.8469 N.3     1  UNL1       -0.2683
     62 C         143.1287  141.0039  165.0457 C.3     1  UNL1        0.1046
     63 C         143.7109  142.2766  165.5854 C.3     1  UNL1        0.1595
     64 O         144.9098  142.8916  164.9263 O.3     1  UNL1       -0.3508
     65 C         145.5266  142.2338  163.7275 C.3     1  UNL1        0.1595
     66 C         144.9443  140.9611  163.1879 C.3     1  UNL1        0.1046
@<TRIPOS>BOND
     1    55    56    1
     2    56    49    1
     3    49    50   ar
     4    50    51   ar
     5    51    52    1
     6    51    53   ar
     7    53    54   ar
     8    54    47    1
     9    47    48    2
    10    47    30    1
    11    30    31    2
    12    31    32    1
    13    32    33    2
    14    33    34    1
    15    34    35    1
    16    35    40    1
    17    40    41   am
    18    40    42    2
    19    35    36    2
    20    36    37    1
    21    37    45    1
    22    45    46    1
    23    37    38    2
    24    38    39    1
    25    39    29    1
    26    29    27    1
    27    27    28    2
    28    28    26    1
    29    26     1    1
    30     1     2    1
    31     2     3    2
    32     3    16    1
    33    16    17    2
    34    16    18    1
    35    18    19   ar
    36    19    20   ar
    37    20    21    1
    38    20    22   ar
    39    22    23   ar
    40    23    24    1
    41    24    25    1
    42     2     4    1
    43     4     5    2
    44     5     6    1
    45     6     7    1
    46     7    11    1
    47    11    12   am
    48    11    13    2
    49     7     8    2
    50     8     9    1
    51     9    57    1
    52    57    58    1
    53    58    59    1
    54    59    60    1
    55    60    61    1
    56    61    62    1
    57    62    63    1
    58    63    64    1
    59    64    65    1
    60    65    66    1
    61     9    10    2
    62    54    49   ar
    63    39    31    1
    64    10     1    1
    65    38    33    1
    66    23    18   ar
    67    10     5    1
    68    66    61    1
    69    41    43    1
    70    41    44    1
    71    12    14    1
    72    12    15    1
@<TRIPOS>MOLECULE
*****
 66 72 0 0 0
SMALL
GASTEIGER

@<TRIPOS>ATOM
      1 N         141.4717  138.3246  158.1906 N.pl3   1  UNL1       -0.1652
      2 C         142.0466  137.3066  157.2509 C.2     1  UNL1        0.4202
      3 N         143.2552  136.4554  157.5052 N.am    1  UNL1        0.0033
      4 N         141.2009  137.2892  156.0122 N.2     1  UNL1       -0.0735
      5 C         140.1032  138.2966  156.1864 C.2     1  UNL1        0.1721
      6 C         138.9728  138.7139  155.2929 C.3     1  UNL1        0.0980
      7 C         138.0098  139.7710  155.7459 C.2     1  UNL1        0.0416
      8 C         138.1772  140.4109  157.0922 C.2     1  UNL1        0.0404
      9 C         139.3075  139.9936  157.9856 C.2     1  UNL1        0.1696
     10 C         140.2705  138.9365  157.5327 C.2     1  UNL1        0.1765
     11 C         136.8795  140.1883  154.8524 C.2     1  UNL1        0.2393
     12 N         135.5607  139.4779  154.9300 N.am    1  UNL1       -0.3256
     13 O         137.0680  141.3160  153.8814 O.2     1  UNL1       -0.2707
     14 H         135.4370  138.7377  155.5673 H       1  UNL1        0.1452
     15 H         134.8188  139.7517  154.3436 H       1  UNL1        0.1452
     16 C         143.7146  135.4756  156.4664 C.2     1  UNL1        0.3589
     17 O         144.3729  135.9667  155.2113 O.2     1  UNL1       -0.2466
     18 C         143.5155  134.0047  156.6828 C.ar    1  UNL1        0.1515
     19 C         144.4125  133.1008  157.4756 C.ar    1  UNL1        0.0414
     20 C         143.8359  131.7168  157.4271 C.ar    1  UNL1        0.0806
     21 C         144.4116  130.4983  158.0858 C.3     1  UNL1        0.0540
     22 N         142.5826  131.7654  156.6043 N.ar    1  UNL1       -0.1735
     23 N         142.3847  133.1793  156.1443 N.ar    1  UNL1       -0.2452
     24 C         141.2542  133.6800  155.2949 C.3     1  UNL1        0.1277
     25 C         141.4935  134.0239  153.8546 C.3     1  UNL1        0.0284
     26 C         142.0043  138.6701  159.5496 C.3     1  UNL1        0.1991
     27 C         143.5884  140.6527  158.9931 C.2     1  UNL1        0.0131
     28 C         142.4955  140.0590  159.8317 C.2     1  UNL1        0.0131
     29 C         144.0797  142.0417  159.2752 C.3     1  UNL1        0.1991
     30 N         143.4876  143.2542  162.2465 N.am    1  UNL1        0.0033
     31 C         142.8299  143.6880  160.9701 C.2     1  UNL1        0.4202
     32 N         141.7845  144.7552  160.8353 N.2     1  UNL1       -0.0735
     33 C         141.4105  144.8574  159.3863 C.2     1  UNL1        0.1721
     34 C         140.4338  145.7351  158.6613 C.3     1  UNL1        0.0980
     35 C         140.2713  145.6087  157.1755 C.2     1  UNL1        0.0416
     36 C         141.0856  144.6046  156.4147 C.2     1  UNL1        0.0404
     37 C         142.0623  143.7270  157.1397 C.2     1  UNL1        0.1698
     38 C         142.2248  143.8534  158.6255 C.2     1  UNL1        0.1765
     39 N         143.1020  143.1306  159.6043 N.pl3   1  UNL1       -0.1652
     40 C         139.2945  146.4863  156.4504 C.2     1  UNL1        0.2393
     41 N         139.1394  147.9242  156.8484 N.am    1  UNL1       -0.3256
     42 O         138.4728  145.9261  155.3275 O.2     1  UNL1       -0.2707
     43 H         139.6787  148.2920  157.5854 H       1  UNL1        0.1452
     44 H         138.4983  148.5003  156.3725 H       1  UNL1        0.1452
     45 O         142.8766  142.7229  156.3789 O.2     1  UNL1       -0.4687
     46 C         142.2045  141.5506  155.7280 C.3     1  UNL1        0.2526
     47 C         143.1113  143.9069  163.5436 C.2     1  UNL1        0.3589
     48 O         143.4891  145.3354  163.8017 O.2     1  UNL1       -0.2466
     49 N         140.9179  143.3263  164.9567 N.ar    1  UNL1       -0.2452
     50 N         140.5812  142.3397  166.0352 N.ar    1  UNL1       -0.1735
     51 C         141.8126  141.5345  166.3276 C.ar    1  UNL1        0.0806
     52 C         141.9264  140.4336  167.3400 C.3     1  UNL1        0.0540
     53 C         142.9103  142.0236  165.4298 C.ar    1  UNL1        0.0414
     54 C         142.3573  143.1310  164.5825 C.ar    1  UNL1        0.1515
     55 C         138.8158  144.8401  165.1553 C.3     1  UNL1        0.0284
     56 C         139.9798  144.3318  164.3575 C.3     1  UNL1        0.1277
     57 O         139.4749  140.6335  159.3319 O.2     1  UNL1       -0.4727
     58 C         138.9482  142.0166  159.5756 C.3     1  UNL1        0.2070
     59 C         138.5981  142.4514  160.9679 C.3     1  UNL1        0.0646
     60 C         137.9620  141.4814  161.9189 C.3     1  UNL1        0.0761
     61 N         138.7390  140.2978  162.4144 N.3     1  UNL1       -0.2683
     62 C         140.1440  140.4764  162.9084 C.3     1  UNL1        0.1046
     63 C         140.9210  139.2928  163.4039 C.3     1  UNL1        0.1595
     64 O         140.2929  137.9306  163.4054 O.3     1  UNL1       -0.3508
     65 C         138.8878  137.7520  162.9114 C.3     1  UNL1        0.1595
     66 C         138.1109  138.9356  162.4159 C.3     1  UNL1        0.1046
@<TRIPOS>BOND
     1    55    56    1
     2    56    49    1
     3    49    50   ar
     4    50    51   ar
     5    51    52    1
     6    51    53   ar
     7    53    54   ar
     8    54    47    1
     9    47    48    2
    10    47    30    1
    11    30    31    2
    12    31    32    1
    13    32    33    2
    14    33    34    1
    15    34    35    1
    16    35    40    1
    17    40    41   am
    18    40    42    2
    19    35    36    2
    20    36    37    1
    21    37    45    1
    22    45    46    1
    23    37    38    2
    24    38    39    1
    25    39    29    1
    26    29    27    1
    27    27    28    2
    28    28    26    1
    29    26     1    1
    30     1     2    1
    31     2     3    2
    32     3    16    1
    33    16    17    2
    34    16    18    1
    35    18    19   ar
    36    19    20   ar
    37    20    21    1
    38    20    22   ar
    39    22    23   ar
    40    23    24    1
    41    24    25    1
    42     2     4    1
    43     4     5    2
    44     5     6    1
    45     6     7    1
    46     7    11    1
    47    11    12   am
    48    11    13    2
    49     7     8    2
    50     8     9    1
    51     9    57    1
    52    57    58    1
    53    58    59    1
    54    59    60    1
    55    60    61    1
    56    61    62    1
    57    62    63    1
    58    63    64    1
    59    64    65    1
    60    65    66    1
    61     9    10    2
    62    54    49   ar
    63    39    31    1
    64    10     1    1
    65    38    33    1
    66    23    18   ar
    67    10     5    1
    68    66    61    1
    69    41    43    1
    70    41    44    1
    71    12    14    1
    72    12    15    1
@<TRIPOS>MOLECULE
*****
 66 72 0 0 0
SMALL
GASTEIGER

@<TRIPOS>ATOM
      1 N         142.6927  139.0616  158.0708 N.pl3   1  UNL1       -0.1652
      2 C         142.7384  137.9367  157.0797 C.2     1  UNL1        0.4202
      3 N         141.8625  136.7190  157.0870 N.am    1  UNL1        0.0033
      4 N         143.8138  138.2431  156.0798 N.2     1  UNL1       -0.0735
      5 C         144.4327  139.5575  156.4531 C.2     1  UNL1        0.1721
      6 C         145.5377  140.3592  155.8314 C.3     1  UNL1        0.0980
      7 C         145.9498  141.6666  156.4403 C.2     1  UNL1        0.0416
      8 C         145.2570  142.1725  157.6708 C.2     1  UNL1        0.0404
      9 C         144.1520  141.3709  158.2924 C.2     1  UNL1        0.1696
     10 C         143.7398  140.0634  157.6836 C.2     1  UNL1        0.1765
     11 C         147.0548  142.4682  155.8187 C.2     1  UNL1        0.2393
     12 N         146.7289  143.6412  154.9423 N.am    1  UNL1       -0.3256
     13 O         148.4856  142.0968  156.0733 O.2     1  UNL1       -0.2707
     14 H         145.7899  143.8850  154.7752 H       1  UNL1        0.1452
     15 H         147.4542  144.1673  154.5343 H       1  UNL1        0.1452
     16 C         142.0246  135.6721  156.0250 C.2     1  UNL1        0.3589
     17 O         141.5323  135.9338  154.6326 O.2     1  UNL1       -0.2466
     18 C         142.6791  134.3635  156.3556 C.ar    1  UNL1        0.1515
     19 C         143.9270  134.1821  157.1679 C.ar    1  UNL1        0.0414
     20 C         144.2197  132.7130  157.2463 C.ar    1  UNL1        0.0806
     21 C         145.3764  132.0815  157.9627 C.3     1  UNL1        0.0540
     22 N         143.1526  131.9864  156.4825 N.ar    1  UNL1       -0.1735
     23 N         142.2005  133.0065  155.9320 N.ar    1  UNL1       -0.2452
     24 C         140.9834  132.7198  155.1035 C.3     1  UNL1        0.1277
     25 C         140.9262  131.4821  154.2580 C.3     1  UNL1        0.0284
     26 C         141.7631  139.1664  159.2434 C.3     1  UNL1        0.1991
     27 C         140.1213  140.7893  158.0516 C.2     1  UNL1        0.0131
     28 C         140.7619  140.2813  159.3092 C.2     1  UNL1        0.0131
     29 C         139.1200  141.9043  158.1174 C.3     1  UNL1        0.1991
     30 N         140.6167  143.2713  160.6748 N.am    1  UNL1        0.0033
     31 C         140.2745  143.9553  159.3844 C.2     1  UNL1        0.4202
     32 N         140.5602  145.3876  159.0430 N.2     1  UNL1       -0.0735
     33 C         140.0488  145.6446  157.6564 C.2     1  UNL1        0.1721
     34 C         140.0534  146.8737  156.7967 C.3     1  UNL1        0.0980
     35 C         139.4561  146.8292  155.4215 C.2     1  UNL1        0.0416
     36 C         138.8544  145.5556  154.9060 C.2     1  UNL1        0.0404
     37 C         138.8498  144.3264  155.7657 C.2     1  UNL1        0.1698
     38 C         139.4470  144.3710  157.1409 C.2     1  UNL1        0.1765
     39 N         139.5866  143.3269  158.2089 N.pl3   1  UNL1       -0.1652
     40 C         139.4607  148.0584  154.5616 C.2     1  UNL1        0.2393
     41 N         140.0177  147.9982  153.1702 N.am    1  UNL1       -0.3256
     42 O         138.9082  149.3476  155.0933 O.2     1  UNL1       -0.2707
     43 H         140.3803  147.1520  152.8213 H       1  UNL1        0.1452
     44 H         140.0206  148.8049  152.6059 H       1  UNL1        0.1452
     45 O         138.2480  143.0528  155.2502 O.2     1  UNL1       -0.4687
     46 C         136.7790  142.7975  155.4135 C.3     1  UNL1        0.2526
     47 C         141.3090  144.0323  161.7664 C.2     1  UNL1        0.3589
     48 O         142.5924  144.7541  161.4800 O.2     1  UNL1       -0.2466
     49 N         141.3035  143.4414  164.3733 N.ar    1  UNL1       -0.2452
     50 N         140.3850  143.7282  165.5240 N.ar    1  UNL1       -0.1735
     51 C         139.2317  144.5356  165.0063 C.ar    1  UNL1        0.0806
     52 C         138.0756  145.0419  165.8169 C.3     1  UNL1        0.0540
     53 C         139.4374  144.7478  163.5357 C.ar    1  UNL1        0.0414
     54 C         140.7179  144.0715  163.1445 C.ar    1  UNL1        0.1515
     55 C         143.3377  142.5671  165.7326 C.3     1  UNL1        0.0284
     56 C         142.5830  142.6613  164.4398 C.3     1  UNL1        0.1277
     57 O         143.4592  141.8767  159.5229 O.2     1  UNL1       -0.4727
     58 C         144.0959  141.6978  160.8692 C.3     1  UNL1        0.2070
     59 C         144.4246  140.3214  161.3665 C.3     1  UNL1        0.0646
     60 C         144.5449  140.0650  162.8395 C.3     1  UNL1        0.0761
     61 N         143.5545  139.1741  163.5291 N.3     1  UNL1       -0.2683
     62 C         143.6328  138.9732  165.0135 C.3     1  UNL1        0.1046
     63 C         142.6423  138.0823  165.7030 C.3     1  UNL1        0.1595
     64 O         141.5737  137.3923  164.9081 O.3     1  UNL1       -0.3508
     65 C         141.4955  137.5932  163.4236 C.3     1  UNL1        0.1595
     66 C         142.4859  138.4840  162.7342 C.3     1  UNL1        0.1046
@<TRIPOS>BOND
     1    55    56    1
     2    56    49    1
     3    49    50   ar
     4    50    51   ar
     5    51    52    1
     6    51    53   ar
     7    53    54   ar
     8    54    47    1
     9    47    48    2
    10    47    30    1
    11    30    31    2
    12    31    32    1
    13    32    33    2
    14    33    34    1
    15    34    35    1
    16    35    40    1
    17    40    41   am
    18    40    42    2
    19    35    36    2
    20    36    37    1
    21    37    45    1
    22    45    46    1
    23    37    38    2
    24    38    39    1
    25    39    29    1
    26    29    27    1
    27    27    28    2
    28    28    26    1
    29    26     1    1
    30     1     2    1
    31     2     3    2
    32     3    16    1
    33    16    17    2
    34    16    18    1
    35    18    19   ar
    36    19    20   ar
    37    20    21    1
    38    20    22   ar
    39    22    23   ar
    40    23    24    1
    41    24    25    1
    42     2     4    1
    43     4     5    2
    44     5     6    1
    45     6     7    1
    46     7    11    1
    47    11    12   am
    48    11    13    2
    49     7     8    2
    50     8     9    1
    51     9    57    1
    52    57    58    1
    53    58    59    1
    54    59    60    1
    55    60    61    1
    56    61    62    1
    57    62    63    1
    58    63    64    1
    59    64    65    1
    60    65    66    1
    61     9    10    2
    62    54    49   ar
    63    39    31    1
    64    10     1    1
    65    38    33    1
    66    23    18   ar
    67    10     5    1
    68    66    61    1
    69    41    43    1
    70    41    44    1
    71    12    14    1
    72    12    15    1
