@<TRIPOS>MOLECULE
*****
 28 31 0 0 0
SMALL
GASTEIGER

@<TRIPOS>ATOM
      1 C         139.4863  141.5713  164.6628 C.ar    1  UNL1        0.0681
      2 C         140.0841  141.0263  163.3997 C.ar    1  UNL1        0.0208
      3 C         139.6060  141.5242  162.0680 C.ar    1  UNL1        0.0384
      4 C         138.5302  142.5671  161.9994 C.ar    1  UNL1        0.1386
      5 C         137.9324  143.1122  163.2626 C.ar    1  UNL1        0.0384
      6 C         138.4105  142.6143  164.5943 C.ar    1  UNL1        0.0208
      7 C         137.9884  139.3884  166.0738 C.3     1  UNL1        0.0723
      8 C         139.2155  139.9819  166.7001 C.ar    1  UNL1        0.1268
      9 N         139.6936  139.4839  168.0318 N.ar    1  UNL1       -0.2318
     10 C         140.9206  140.0774  168.6580 C.ar    1  UNL1        0.0894
     11 C         141.3987  139.5794  169.9897 C.ar    1  UNL1        0.0194
     12 C         142.6257  140.1729  170.6159 C.ar    1  UNL1        0.0039
     13 C         143.3747  141.2644  169.9104 C.ar    1  UNL1        0.0299
     14 C         142.8966  141.7624  168.5787 C.ar    1  UNL1        0.1462
     15 F         143.6456  142.8538  167.8732 F       1  UNL1       -0.2040
     16 C         141.6696  141.1689  167.9525 C.ar    1  UNL1        0.1015
     17 C         141.1915  141.6668  166.6207 C.ar    1  UNL1        0.2691
     18 O         141.9404  142.7583  165.9152 O.2     1  UNL1       -0.2665
     19 N         139.9645  141.0733  165.9946 N.ar    1  UNL1       -0.2625
     20 O         138.0521  143.0651  160.6677 O.3     1  UNL1       -0.4754
     21 C         138.8483  142.7773  159.4294 C.3     1  UNL1        0.2068
     22 C         139.9891  143.6726  159.0463 C.3     1  UNL1        0.0646
     23 C         140.2216  144.9524  159.7932 C.3     1  UNL1        0.0759
     24 N         140.9357  144.9320  161.1122 N.3     1  UNL1       -0.2726
     25 C         142.1908  144.1719  161.4236 C.3     1  UNL1        0.0721
     26 C         142.5509  144.4382  162.8552 C.3     1  UNL1        0.0188
     27 C         141.5183  145.3629  163.4286 C.3     1  UNL1        0.0188
     28 C         140.5200  145.6681  162.3513 C.3     1  UNL1        0.0721
@<TRIPOS>BOND
     1     7     8    1
     2     8     9   ar
     3     9    10   ar
     4    10    11   ar
     5    11    12   ar
     6    12    13   ar
     7    13    14   ar
     8    14    15    1
     9    14    16   ar
    10    16    17   ar
    11    17    18    2
    12    17    19   ar
    13    19     1    1
    14     1     2   ar
    15     2     3   ar
    16     3     4   ar
    17     4    20    1
    18    20    21    1
    19    21    22    1
    20    22    23    1
    21    23    24    1
    22    24    25    1
    23    25    26    1
    24    26    27    1
    25    27    28    1
    26     4     5   ar
    27     5     6   ar
    28    19     8   ar
    29     6     1   ar
    30    16    10   ar
    31    28    24    1
@<TRIPOS>MOLECULE
*****
 28 31 0 0 0
SMALL
GASTEIGER

@<TRIPOS>ATOM
      1 C         140.5239  139.2676  164.8735 C.ar    1  UNL1        0.0681
      2 C         140.0552  140.0902  163.7100 C.ar    1  UNL1        0.0208
      3 C         140.2241  139.5757  162.3112 C.ar    1  UNL1        0.0384
      4 C         140.8617  138.2385  162.0759 C.ar    1  UNL1        0.1386
      5 C         141.3305  137.4160  163.2393 C.ar    1  UNL1        0.0384
      6 C         141.1616  137.9305  164.6381 C.ar    1  UNL1        0.0208
      7 C         138.1171  138.4790  166.4814 C.3     1  UNL1        0.0723
      8 C         139.1516  139.3880  167.0763 C.ar    1  UNL1        0.1268
      9 N         138.9826  139.9025  168.4751 N.ar    1  UNL1       -0.2318
     10 C         140.0171  140.8114  169.0699 C.ar    1  UNL1        0.0894
     11 C         139.8481  141.3260  170.4687 C.ar    1  UNL1        0.0194
     12 C         140.8825  142.2349  171.0635 C.ar    1  UNL1        0.0039
     13 C         142.0860  142.6292  170.2596 C.ar    1  UNL1        0.0299
     14 C         142.2549  142.1146  168.8608 C.ar    1  UNL1        0.1462
     15 F         143.4583  142.5089  168.0569 F       1  UNL1       -0.2040
     16 C         141.2205  141.2057  168.2660 C.ar    1  UNL1        0.1015
     17 C         141.3894  140.6911  166.8671 C.ar    1  UNL1        0.2691
     18 O         142.5928  141.0854  166.0632 O.2     1  UNL1       -0.2665
     19 N         140.3550  139.7823  166.2723 N.ar    1  UNL1       -0.2625
     20 O         141.0307  137.7239  160.6770 O.3     1  UNL1       -0.4754
     21 C         142.0535  138.3405  159.7695 C.3     1  UNL1        0.2068
     22 C         143.4117  138.6926  160.2998 C.3     1  UNL1        0.0646
     23 C         143.7186  140.1061  160.6967 C.3     1  UNL1        0.0759
     24 N         144.3989  140.3873  162.0036 N.3     1  UNL1       -0.2726
     25 C         144.4719  139.4566  163.1778 C.3     1  UNL1        0.0721
     26 C         145.2437  140.1426  164.2658 C.3     1  UNL1        0.0188
     27 C         145.6478  141.4973  163.7641 C.3     1  UNL1        0.0188
     28 C         145.1256  141.6485  162.3660 C.3     1  UNL1        0.0721
@<TRIPOS>BOND
     1     7     8    1
     2     8     9   ar
     3     9    10   ar
     4    10    11   ar
     5    11    12   ar
     6    12    13   ar
     7    13    14   ar
     8    14    15    1
     9    14    16   ar
    10    16    17   ar
    11    17    18    2
    12    17    19   ar
    13    19     1    1
    14     1     2   ar
    15     2     3   ar
    16     3     4   ar
    17     4    20    1
    18    20    21    1
    19    21    22    1
    20    22    23    1
    21    23    24    1
    22    24    25    1
    23    25    26    1
    24    26    27    1
    25    27    28    1
    26     4     5   ar
    27     5     6   ar
    28    19     8   ar
    29     6     1   ar
    30    16    10   ar
    31    28    24    1
@<TRIPOS>MOLECULE
*****
 28 31 0 0 0
SMALL
GASTEIGER

@<TRIPOS>ATOM
      1 C         143.0264  140.1481  164.7296 C.ar    1  UNL1        0.0681
      2 C         142.0599  139.6071  163.7181 C.ar    1  UNL1        0.0208
      3 C         142.4404  139.5589  162.2680 C.ar    1  UNL1        0.0384
      4 C         143.7874  140.0519  161.8294 C.ar    1  UNL1        0.1386
      5 C         144.7539  140.5929  162.8408 C.ar    1  UNL1        0.0384
      6 C         144.3735  140.6411  164.2909 C.ar    1  UNL1        0.0208
      7 C         143.9299  137.9752  166.5903 C.3     1  UNL1        0.0723
      8 C         143.0976  139.1098  167.1101 C.ar    1  UNL1        0.1268
      9 N         142.7171  139.1579  168.5602 N.ar    1  UNL1       -0.2318
     10 C         141.8849  140.2925  169.0801 C.ar    1  UNL1        0.0894
     11 C         141.5044  140.3405  170.5302 C.ar    1  UNL1        0.0194
     12 C         140.6722  141.4751  171.0499 C.ar    1  UNL1        0.0039
     13 C         140.2204  142.5615  170.1196 C.ar    1  UNL1        0.0299
     14 C         140.6009  142.5135  168.6695 C.ar    1  UNL1        0.1462
     15 F         140.1492  143.5999  167.7391 F       1  UNL1       -0.2040
     16 C         141.4331  141.3789  168.1497 C.ar    1  UNL1        0.1015
     17 C         141.8137  141.3308  166.6995 C.ar    1  UNL1        0.2691
     18 O         141.3619  142.4172  165.7692 O.2     1  UNL1       -0.2665
     19 N         142.6459  140.1963  166.1798 N.ar    1  UNL1       -0.2625
     20 O         144.1679  140.0037  160.3792 O.3     1  UNL1       -0.4754
     21 C         143.8363  141.1562  159.4781 C.3     1  UNL1        0.2068
     22 C         144.0631  142.5632  159.9458 C.3     1  UNL1        0.0646
     23 C         142.9021  143.4016  160.3922 C.3     1  UNL1        0.0759
     24 N         142.9329  144.0718  161.7337 N.3     1  UNL1       -0.2726
     25 C         144.1361  144.2221  162.6169 C.3     1  UNL1        0.0721
     26 C         143.7127  144.9525  163.8567 C.3     1  UNL1        0.0188
     27 C         142.2478  145.2537  163.7399 C.3     1  UNL1        0.0188
     28 C         141.7659  144.7093  162.4278 C.3     1  UNL1        0.0721
@<TRIPOS>BOND
     1     7     8    1
     2     8     9   ar
     3     9    10   ar
     4    10    11   ar
     5    11    12   ar
     6    12    13   ar
     7    13    14   ar
     8    14    15    1
     9    14    16   ar
    10    16    17   ar
    11    17    18    2
    12    17    19   ar
    13    19     1    1
    14     1     2   ar
    15     2     3   ar
    16     3     4   ar
    17     4    20    1
    18    20    21    1
    19    21    22    1
    20    22    23    1
    21    23    24    1
    22    24    25    1
    23    25    26    1
    24    26    27    1
    25    27    28    1
    26     4     5   ar
    27     5     6   ar
    28    19     8   ar
    29     6     1   ar
    30    16    10   ar
    31    28    24    1
@<TRIPOS>MOLECULE
*****
 28 31 0 0 0
SMALL
GASTEIGER

@<TRIPOS>ATOM
      1 C         139.5148  141.5382  164.6086 C.ar    1  UNL1        0.0681
      2 C         140.3618  141.3021  163.3934 C.ar    1  UNL1        0.0208
      3 C         139.8978  141.7834  162.0507 C.ar    1  UNL1        0.0384
      4 C         138.5867  142.5009  161.9232 C.ar    1  UNL1        0.1386
      5 C         137.7397  142.7370  163.1385 C.ar    1  UNL1        0.0384
      6 C         138.2038  142.2556  164.4812 C.ar    1  UNL1        0.0208
      7 C         138.0130  139.3596  166.0223 C.3     1  UNL1        0.0723
      8 C         139.2280  139.9675  166.6582 C.ar    1  UNL1        0.1268
      9 N         139.6921  139.4861  168.0009 N.ar    1  UNL1       -0.2318
     10 C         140.9071  140.0939  168.6368 C.ar    1  UNL1        0.0894
     11 C         141.3712  139.6125  169.9795 C.ar    1  UNL1        0.0194
     12 C         142.5862  140.2204  170.6153 C.ar    1  UNL1        0.0039
     13 C         143.3371  141.3096  169.9085 C.ar    1  UNL1        0.0299
     14 C         142.8730  141.7911  168.5658 C.ar    1  UNL1        0.1462
     15 F         143.6239  142.8803  167.8589 F       1  UNL1       -0.2040
     16 C         141.6580  141.1832  167.9300 C.ar    1  UNL1        0.1015
     17 C         141.1939  141.6646  166.5872 C.ar    1  UNL1        0.2691
     18 O         141.9448  142.7539  165.8804 O.2     1  UNL1       -0.2665
     19 N         139.9790  141.0568  165.9514 N.ar    1  UNL1       -0.2625
     20 O         138.1226  142.9823  160.5805 O.3     1  UNL1       -0.4754
     21 C         138.5580  142.2673  159.3358 C.3     1  UNL1        0.2068
     22 C         137.9715  140.9293  158.9954 C.3     1  UNL1        0.0646
     23 C         138.8130  139.6923  159.1031 C.3     1  UNL1        0.0759
     24 N         138.9424  138.9856  160.4198 N.3     1  UNL1       -0.2726
     25 C         137.8412  138.7653  161.4143 C.3     1  UNL1        0.0721
     26 C         138.4140  138.0186  162.5824 C.3     1  UNL1        0.0188
     27 C         139.8692  137.7774  162.3099 C.3     1  UNL1        0.0188
     28 C         140.1958  138.3750  160.9734 C.3     1  UNL1        0.0721
@<TRIPOS>BOND
     1     7     8    1
     2     8     9   ar
     3     9    10   ar
     4    10    11   ar
     5    11    12   ar
     6    12    13   ar
     7    13    14   ar
     8    14    15    1
     9    14    16   ar
    10    16    17   ar
    11    17    18    2
    12    17    19   ar
    13    19     1    1
    14     1     2   ar
    15     2     3   ar
    16     3     4   ar
    17     4    20    1
    18    20    21    1
    19    21    22    1
    20    22    23    1
    21    23    24    1
    22    24    25    1
    23    25    26    1
    24    26    27    1
    25    27    28    1
    26     4     5   ar
    27     5     6   ar
    28    19     8   ar
    29     6     1   ar
    30    16    10   ar
    31    28    24    1
@<TRIPOS>MOLECULE
*****
 28 31 0 0 0
SMALL
GASTEIGER

@<TRIPOS>ATOM
      1 C         139.6212  139.3459  164.9527 C.ar    1  UNL1        0.0681
      2 C         140.2206  138.0550  164.4791 C.ar    1  UNL1        0.0208
      3 C         140.0099  137.6049  163.0639 C.ar    1  UNL1        0.0384
      4 C         139.1997  138.4456  162.1223 C.ar    1  UNL1        0.1386
      5 C         138.6002  139.7364  162.5959 C.ar    1  UNL1        0.0384
      6 C         138.8109  140.1866  164.0111 C.ar    1  UNL1        0.0208
      7 C         137.6750  138.5397  167.0888 C.3     1  UNL1        0.0723
      8 C         138.8589  139.3930  167.4361 C.ar    1  UNL1        0.1268
      9 N         139.0696  139.8431  168.8513 N.ar    1  UNL1       -0.2318
     10 C         140.2535  140.6963  169.1986 C.ar    1  UNL1        0.0894
     11 C         140.4642  141.1464  170.6138 C.ar    1  UNL1        0.0194
     12 C         141.6480  141.9996  170.9610 C.ar    1  UNL1        0.0039
     13 C         142.6211  142.4027  169.8930 C.ar    1  UNL1        0.0299
     14 C         142.4104  141.9526  168.4778 C.ar    1  UNL1        0.1462
     15 F         143.3834  142.3557  167.4098 F       1  UNL1       -0.2040
     16 C         141.2265  141.0994  168.1306 C.ar    1  UNL1        0.1015
     17 C         141.0158  140.6492  166.7153 C.ar    1  UNL1        0.2691
     18 O         141.9888  141.0523  165.6472 O.2     1  UNL1       -0.2665
     19 N         139.8319  139.7961  166.3680 N.ar    1  UNL1       -0.2625
     20 O         138.9889  137.9954  160.7070 O.3     1  UNL1       -0.4754
     21 C         139.9296  138.4456  159.6288 C.3     1  UNL1        0.2068
     22 C         141.1124  139.3007  159.9745 C.3     1  UNL1        0.0646
     23 C         142.4345  138.6627  160.2831 C.3     1  UNL1        0.0759
     24 N         143.2798  139.1929  161.4030 N.3     1  UNL1       -0.2726
     25 C         144.0233  140.4958  161.4060 C.3     1  UNL1        0.0721
     26 C         144.7331  140.6215  162.7213 C.3     1  UNL1        0.0188
     27 C         144.4285  139.3963  163.5314 C.3     1  UNL1        0.0188
     28 C         143.5303  138.5134  162.7166 C.3     1  UNL1        0.0721
@<TRIPOS>BOND
     1     7     8    1
     2     8     9   ar
     3     9    10   ar
     4    10    11   ar
     5    11    12   ar
     6    12    13   ar
     7    13    14   ar
     8    14    15    1
     9    14    16   ar
    10    16    17   ar
    11    17    18    2
    12    17    19   ar
    13    19     1    1
    14     1     2   ar
    15     2     3   ar
    16     3     4   ar
    17     4    20    1
    18    20    21    1
    19    21    22    1
    20    22    23    1
    21    23    24    1
    22    24    25    1
    23    25    26    1
    24    26    27    1
    25    27    28    1
    26     4     5   ar
    27     5     6   ar
    28    19     8   ar
    29     6     1   ar
    30    16    10   ar
    31    28    24    1
@<TRIPOS>MOLECULE
*****
 28 31 0 0 0
SMALL
GASTEIGER

@<TRIPOS>ATOM
      1 C         139.5508  139.3183  164.8984 C.ar    1  UNL1        0.0681
      2 C         140.3900  138.2000  164.3553 C.ar    1  UNL1        0.0208
      3 C         140.1879  137.7265  162.9465 C.ar    1  UNL1        0.0384
      4 C         139.1466  138.3715  162.0807 C.ar    1  UNL1        0.1386
      5 C         138.3074  139.4899  162.6237 C.ar    1  UNL1        0.0384
      6 C         138.5094  139.9633  164.0326 C.ar    1  UNL1        0.0208
      7 C         137.6635  138.4433  167.0601 C.3     1  UNL1        0.0723
      8 C         138.8092  139.3542  167.3882 C.ar    1  UNL1        0.1268
      9 N         139.0113  139.8275  168.7971 N.ar    1  UNL1       -0.2318
     10 C         140.1570  140.7384  169.1253 C.ar    1  UNL1        0.0894
     11 C         140.3591  141.2118  170.5342 C.ar    1  UNL1        0.0194
     12 C         141.5048  142.1227  170.8623 C.ar    1  UNL1        0.0039
     13 C         142.4484  142.5602  169.7815 C.ar    1  UNL1        0.0299
     14 C         142.2463  142.0868  168.3726 C.ar    1  UNL1        0.1462
     15 F         143.1899  142.5244  167.2918 F       1  UNL1       -0.2040
     16 C         141.1006  141.1760  168.0445 C.ar    1  UNL1        0.1015
     17 C         140.8985  140.7026  166.6355 C.ar    1  UNL1        0.2691
     18 O         141.8422  141.1401  165.5547 O.2     1  UNL1       -0.2665
     19 N         139.7529  139.7917  166.3074 N.ar    1  UNL1       -0.2625
     20 O         138.9445  137.8981  160.6717 O.3     1  UNL1       -0.4754
     21 C         139.4776  138.7056  159.5255 C.3     1  UNL1        0.2068
     22 C         140.6580  139.6084  159.7289 C.3     1  UNL1        0.0646
     23 C         140.5017  141.0927  159.5792 C.3     1  UNL1        0.0759
     24 N         140.1506  141.9338  160.7704 N.3     1  UNL1       -0.2726
     25 C         140.9527  142.0539  162.0323 C.3     1  UNL1        0.0721
     26 C         140.2336  142.9969  162.9508 C.3     1  UNL1        0.0188
     27 C         138.9869  143.4596  162.2567 C.3     1  UNL1        0.0188
     28 C         138.9356  142.8026  160.9091 C.3     1  UNL1        0.0721
@<TRIPOS>BOND
     1     7     8    1
     2     8     9   ar
     3     9    10   ar
     4    10    11   ar
     5    11    12   ar
     6    12    13   ar
     7    13    14   ar
     8    14    15    1
     9    14    16   ar
    10    16    17   ar
    11    17    18    2
    12    17    19   ar
    13    19     1    1
    14     1     2   ar
    15     2     3   ar
    16     3     4   ar
    17     4    20    1
    18    20    21    1
    19    21    22    1
    20    22    23    1
    21    23    24    1
    22    24    25    1
    23    25    26    1
    24    26    27    1
    25    27    28    1
    26     4     5   ar
    27     5     6   ar
    28    19     8   ar
    29     6     1   ar
    30    16    10   ar
    31    28    24    1
@<TRIPOS>MOLECULE
*****
 28 31 0 0 0
SMALL
GASTEIGER

@<TRIPOS>ATOM
      1 C         140.9570  139.4386  164.7106 C.ar    1  UNL1        0.0681
      2 C         139.8153  138.4661  164.6813 C.ar    1  UNL1        0.0208
      3 C         139.2804  137.9769  163.3681 C.ar    1  UNL1        0.0384
      4 C         139.8870  138.4602  162.0843 C.ar    1  UNL1        0.1386
      5 C         141.0287  139.4327  162.1136 C.ar    1  UNL1        0.0384
      6 C         141.5636  139.9219  163.4267 C.ar    1  UNL1        0.0208
      7 C         143.1668  137.9424  166.0810 C.3     1  UNL1        0.0723
      8 C         142.5969  139.1797  166.7091 C.ar    1  UNL1        0.1268
      9 N         143.1318  139.6689  168.0222 N.ar    1  UNL1       -0.2318
     10 C         142.5619  140.9062  168.6503 C.ar    1  UNL1        0.0894
     11 C         143.0969  141.3953  169.9635 C.ar    1  UNL1        0.0194
     12 C         142.5269  142.6325  170.5914 C.ar    1  UNL1        0.0039
     13 C         141.4220  143.3806  169.9062 C.ar    1  UNL1        0.0299
     14 C         140.8870  142.8915  168.5930 C.ar    1  UNL1        0.1462
     15 F         139.7821  143.6396  167.9078 F       1  UNL1       -0.2040
     16 C         141.4570  141.6542  167.9651 C.ar    1  UNL1        0.1015
     17 C         140.9220  141.1650  166.6518 C.ar    1  UNL1        0.2691
     18 O         139.8171  141.9131  165.9666 O.2     1  UNL1       -0.2665
     19 N         141.4919  139.9278  166.0238 N.ar    1  UNL1       -0.2625
     20 O         139.3521  137.9710  160.7710 O.3     1  UNL1       -0.4754
     21 C         139.1828  138.9267  159.6273 C.3     1  UNL1        0.2068
     22 C         138.1708  140.0303  159.7156 C.3     1  UNL1        0.0646
     23 C         138.6011  141.4128  160.1073 C.3     1  UNL1        0.0759
     24 N         138.2013  141.9734  161.4400 N.3     1  UNL1       -0.2726
     25 C         138.3877  143.3916  161.8918 C.3     1  UNL1        0.0721
     26 C         137.8466  143.5089  163.2859 C.3     1  UNL1        0.0188
     27 C         137.3259  142.1632  163.6957 C.3     1  UNL1        0.0188
     28 C         137.5451  141.2142  162.5549 C.3     1  UNL1        0.0721
@<TRIPOS>BOND
     1     7     8    1
     2     8     9   ar
     3     9    10   ar
     4    10    11   ar
     5    11    12   ar
     6    12    13   ar
     7    13    14   ar
     8    14    15    1
     9    14    16   ar
    10    16    17   ar
    11    17    18    2
    12    17    19   ar
    13    19     1    1
    14     1     2   ar
    15     2     3   ar
    16     3     4   ar
    17     4    20    1
    18    20    21    1
    19    21    22    1
    20    22    23    1
    21    23    24    1
    22    24    25    1
    23    25    26    1
    24    26    27    1
    25    27    28    1
    26     4     5   ar
    27     5     6   ar
    28    19     8   ar
    29     6     1   ar
    30    16    10   ar
    31    28    24    1
@<TRIPOS>MOLECULE
*****
 28 31 0 0 0
SMALL
GASTEIGER

@<TRIPOS>ATOM
      1 C         143.0212  139.4672  164.6750 C.ar    1  UNL1        0.0681
      2 C         142.2777  138.3984  163.9301 C.ar    1  UNL1        0.0208
      3 C         142.6251  138.0995  162.5019 C.ar    1  UNL1        0.0384
      4 C         143.7160  138.8694  161.8185 C.ar    1  UNL1        0.1386
      5 C         144.4596  139.9382  162.5634 C.ar    1  UNL1        0.0384
      6 C         144.1122  140.2371  163.9917 C.ar    1  UNL1        0.0208
      7 C         144.0475  137.6984  166.8700 C.3     1  UNL1        0.0723
      8 C         143.1868  138.8816  167.2009 C.ar    1  UNL1        0.1268
      9 N         142.8394  139.1804  168.6291 N.ar    1  UNL1       -0.2318
     10 C         141.9788  140.3637  168.9599 C.ar    1  UNL1        0.0894
     11 C         141.6314  140.6625  170.3882 C.ar    1  UNL1        0.0194
     12 C         140.7708  141.8457  170.7189 C.ar    1  UNL1        0.0039
     13 C         140.2577  142.7301  169.6214 C.ar    1  UNL1        0.0299
     14 C         140.6051  142.4313  168.1932 C.ar    1  UNL1        0.1462
     15 F         140.0920  143.3157  167.0956 F       1  UNL1       -0.2040
     16 C         141.4657  141.2481  167.8624 C.ar    1  UNL1        0.1015
     17 C         141.8132  140.9492  166.4341 C.ar    1  UNL1        0.2691
     18 O         141.3000  141.8336  165.3366 O.2     1  UNL1       -0.2665
     19 N         142.6737  139.7660  166.1033 N.ar    1  UNL1       -0.2625
     20 O         144.0635  138.5706  160.3902 O.3     1  UNL1       -0.4754
     21 C         143.1379  138.9946  159.2887 C.3     1  UNL1        0.2068
     22 C         142.0788  140.0234  159.5533 C.3     1  UNL1        0.0646
     23 C         140.6296  139.6427  159.4846 C.3     1  UNL1        0.0759
     24 N         139.8617  139.3828  160.7466 N.3     1  UNL1       -0.2726
     25 C         139.7217  140.3270  161.9038 C.3     1  UNL1        0.0721
     26 C         138.8725  139.6609  162.9455 C.3     1  UNL1        0.0188
     27 C         138.4877  138.3050  162.4322 C.3     1  UNL1        0.0188
     28 C         139.0991  138.1331  161.0732 C.3     1  UNL1        0.0721
@<TRIPOS>BOND
     1     7     8    1
     2     8     9   ar
     3     9    10   ar
     4    10    11   ar
     5    11    12   ar
     6    12    13   ar
     7    13    14   ar
     8    14    15    1
     9    14    16   ar
    10    16    17   ar
    11    17    18    2
    12    17    19   ar
    13    19     1    1
    14     1     2   ar
    15     2     3   ar
    16     3     4   ar
    17     4    20    1
    18    20    21    1
    19    21    22    1
    20    22    23    1
    21    23    24    1
    22    24    25    1
    23    25    26    1
    24    26    27    1
    25    27    28    1
    26     4     5   ar
    27     5     6   ar
    28    19     8   ar
    29     6     1   ar
    30    16    10   ar
    31    28    24    1
@<TRIPOS>MOLECULE
*****
 28 31 0 0 0
SMALL
GASTEIGER

@<TRIPOS>ATOM
      1 C         141.4029  139.8894  164.5614 C.ar    1  UNL1        0.0681
      2 C         140.9475  140.8654  163.5174 C.ar    1  UNL1        0.0208
      3 C         141.3304  140.6609  162.0816 C.ar    1  UNL1        0.0384
      4 C         142.1686  139.4803  161.6898 C.ar    1  UNL1        0.1386
      5 C         142.6239  138.5042  162.7338 C.ar    1  UNL1        0.0384
      6 C         142.2410  138.7087  164.1696 C.ar    1  UNL1        0.0208
      7 C         138.8714  138.6812  165.6255 C.3     1  UNL1        0.0723
      8 C         139.7542  139.4899  166.5293 C.ar    1  UNL1        0.1268
      9 N         139.3713  139.6944  167.9651 N.ar    1  UNL1       -0.2318
     10 C         140.2541  140.5031  168.8689 C.ar    1  UNL1        0.0894
     11 C         139.8712  140.7076  170.3047 C.ar    1  UNL1        0.0194
     12 C         140.7540  141.5162  171.2084 C.ar    1  UNL1        0.0039
     13 C         142.0197  142.1203  170.6764 C.ar    1  UNL1        0.0299
     14 C         142.4026  141.9157  169.2406 C.ar    1  UNL1        0.1462
     15 F         143.6684  142.5198  168.7085 F       1  UNL1       -0.2040
     16 C         141.5198  141.1071  168.3369 C.ar    1  UNL1        0.1015
     17 C         141.9028  140.9025  166.9010 C.ar    1  UNL1        0.2691
     18 O         143.1685  141.5066  166.3690 O.2     1  UNL1       -0.2665
     19 N         141.0200  140.0939  165.9973 N.ar    1  UNL1       -0.2625
     20 O         142.5515  139.2757  160.2540 O.3     1  UNL1       -0.4754
     21 C         143.7354  139.9986  159.6832 C.3     1  UNL1        0.2068
     22 C         143.6032  141.4279  159.2481 C.3     1  UNL1        0.0646
     23 C         144.3842  142.5003  159.9480 C.3     1  UNL1        0.0759
     24 N         143.7351  143.3204  161.0232 N.3     1  UNL1       -0.2726
     25 C         144.3636  143.7260  162.3234 C.3     1  UNL1        0.0721
     26 C         143.3605  144.5352  163.0908 C.3     1  UNL1        0.0188
     27 C         142.1118  144.6298  162.2648 C.3     1  UNL1        0.0188
     28 C         142.3434  143.8790  160.9870 C.3     1  UNL1        0.0721
@<TRIPOS>BOND
     1     7     8    1
     2     8     9   ar
     3     9    10   ar
     4    10    11   ar
     5    11    12   ar
     6    12    13   ar
     7    13    14   ar
     8    14    15    1
     9    14    16   ar
    10    16    17   ar
    11    17    18    2
    12    17    19   ar
    13    19     1    1
    14     1     2   ar
    15     2     3   ar
    16     3     4   ar
    17     4    20    1
    18    20    21    1
    19    21    22    1
    20    22    23    1
    21    23    24    1
    22    24    25    1
    23    25    26    1
    24    26    27    1
    25    27    28    1
    26     4     5   ar
    27     5     6   ar
    28    19     8   ar
    29     6     1   ar
    30    16    10   ar
    31    28    24    1
