@<TRIPOS>MOLECULE
*****
 21 22 0 0 0
SMALL
GASTEIGER

@<TRIPOS>ATOM
      1 C         139.9572  142.6550  163.7364 C.ar    1  UNL1        0.1427
      2 C         141.2120  143.4080  163.4068 C.ar    1  UNL1        0.0395
      3 C         141.1276  144.7888  162.8269 C.ar    1  UNL1        0.0327
      4 C         139.7884  145.4165  162.5765 C.ar    1  UNL1        0.1401
      5 F         139.7041  146.7973  161.9966 F       1  UNL1       -0.2042
      6 C         138.5338  144.6635  162.9062 C.ar    1  UNL1        0.0297
      7 C         138.6181  143.2828  163.4861 C.ar    1  UNL1        0.0304
      8 O         140.0416  141.2742  164.3164 O.3     1  UNL1       -0.4538
      9 C         140.5012  141.8325  168.2186 C.ar    1  UNL1       -0.0086
     10 C         140.6104  142.0311  166.7358 C.ar    1  UNL1        0.0341
     11 C         139.9324  141.0756  165.7992 C.ar    1  UNL1        0.1450
     12 C         139.1451  139.9215  166.3453 C.ar    1  UNL1        0.0383
     13 C         139.0359  139.7229  167.8281 C.ar    1  UNL1        0.0142
     14 C         139.7140  140.6785  168.7647 C.ar    1  UNL1        0.0539
     15 CL        139.6047  140.4798  170.2475 Cl      1  UNL1       -0.0826
     16 C         140.3965  143.8996  169.7890 C.3     1  UNL1        0.0051
     17 C         141.1792  142.7881  169.1552 C.3     1  UNL1        0.0273
     18 C         137.3633  142.5298  163.8157 C.3     1  UNL1        0.0988
     19 N         137.0174  141.2812  163.0598 N.3     1  UNL1       -0.2925
     20 C         137.6706  140.9987  161.7395 C.3     1  UNL1        0.0861
     21 H         136.0119  141.3082  162.8911 H       1  UNL1        0.1236
@<TRIPOS>BOND
     1    16    17    1
     2    17     9    1
     3     9    10   ar
     4    10    11   ar
     5    11     8    1
     6     8     1    1
     7     1     2   ar
     8     2     3   ar
     9     3     4   ar
    10     4     5    1
    11     4     6   ar
    12     6     7   ar
    13     7    18    1
    14    18    19    1
    15    19    20    1
    16    11    12   ar
    17    12    13   ar
    18    13    14   ar
    19    14    15    1
    20    14     9   ar
    21     7     1   ar
    22    19    21    1
@<TRIPOS>MOLECULE
*****
 21 22 0 0 0
SMALL
GASTEIGER

@<TRIPOS>ATOM
      1 C         140.7864  142.4263  167.6733 C.ar    1  UNL1        0.1427
      2 C         140.2671  143.3396  168.7440 C.ar    1  UNL1        0.0395
      3 C         141.1135  143.6462  169.9437 C.ar    1  UNL1        0.0327
      4 C         142.4793  143.0396  170.0729 C.ar    1  UNL1        0.1401
      5 F         143.3258  143.3462  171.2726 F       1  UNL1       -0.2042
      6 C         142.9986  142.1263  169.0022 C.ar    1  UNL1        0.0297
      7 C         142.1521  141.8197  167.8025 C.ar    1  UNL1        0.0304
      8 O         139.9399  142.1197  166.4735 O.3     1  UNL1       -0.4538
      9 C         141.0229  144.6822  163.6432 C.ar    1  UNL1       -0.0086
     10 C         141.1076  143.6985  164.7724 C.ar    1  UNL1        0.0341
     11 C         139.8551  143.1034  165.3443 C.ar    1  UNL1        0.1450
     12 C         138.5178  143.4920  164.7869 C.ar    1  UNL1        0.0383
     13 C         138.4331  144.4756  163.6577 C.ar    1  UNL1        0.0142
     14 C         139.6856  145.0707  163.0859 C.ar    1  UNL1        0.0539
     15 CL        139.6008  146.0545  161.9566 Cl      1  UNL1       -0.0826
     16 C         143.5697  145.1641  163.8210 C.3     1  UNL1        0.0051
     17 C         142.2754  145.2773  163.0713 C.3     1  UNL1        0.0273
     18 C         142.6714  140.9063  166.7318 C.3     1  UNL1        0.0988
     19 N         141.9118  139.6639  166.3724 N.3     1  UNL1       -0.2925
     20 C         142.5287  138.6451  165.4607 C.3     1  UNL1        0.0861
     21 H         141.0437  139.9669  165.9309 H       1  UNL1        0.1236
@<TRIPOS>BOND
     1    16    17    1
     2    17     9    1
     3     9    10   ar
     4    10    11   ar
     5    11     8    1
     6     8     1    1
     7     1     2   ar
     8     2     3   ar
     9     3     4   ar
    10     4     5    1
    11     4     6   ar
    12     6     7   ar
    13     7    18    1
    14    18    19    1
    15    19    20    1
    16    11    12   ar
    17    12    13   ar
    18    13    14   ar
    19    14    15    1
    20    14     9   ar
    21     7     1   ar
    22    19    21    1
@<TRIPOS>MOLECULE
*****
 21 22 0 0 0
SMALL
GASTEIGER

@<TRIPOS>ATOM
      1 C         141.1610  143.1964  164.8890 C.ar    1  UNL1        0.1427
      2 C         139.9224  142.3886  165.1407 C.ar    1  UNL1        0.0395
      3 C         138.6071  142.8364  164.5754 C.ar    1  UNL1        0.0327
      4 C         138.5305  144.0920  163.7583 C.ar    1  UNL1        0.1401
      5 F         137.2153  144.5398  163.1929 F       1  UNL1       -0.2042
      6 C         139.7691  144.8998  163.5066 C.ar    1  UNL1        0.0297
      7 C         141.0843  144.4520  164.0720 C.ar    1  UNL1        0.0304
      8 O         142.4762  142.7487  165.4544 O.3     1  UNL1       -0.4538
      9 C         142.3932  141.2380  169.1233 C.ar    1  UNL1       -0.0086
     10 C         142.3591  142.2282  167.9971 C.ar    1  UNL1        0.0341
     11 C         142.5103  141.7584  166.5806 C.ar    1  UNL1        0.1450
     12 C         142.6956  140.2985  166.2903 C.ar    1  UNL1        0.0383
     13 C         142.7297  139.3084  167.4165 C.ar    1  UNL1        0.0142
     14 C         142.5785  139.7781  168.8330 C.ar    1  UNL1        0.0539
     15 CL        142.6126  138.7879  169.9593 Cl      1  UNL1       -0.0826
     16 C         140.8815  141.7696  171.1683 C.3     1  UNL1        0.0051
     17 C         142.2420  141.7078  170.5398 C.3     1  UNL1        0.0273
     18 C         142.3229  145.2599  163.8203 C.3     1  UNL1        0.0988
     19 N         143.1294  145.0286  162.5769 N.3     1  UNL1       -0.2925
     20 C         144.2439  144.0248  162.5818 C.3     1  UNL1        0.0861
     21 H         143.5424  145.9259  162.3226 H       1  UNL1        0.1236
@<TRIPOS>BOND
     1    16    17    1
     2    17     9    1
     3     9    10   ar
     4    10    11   ar
     5    11     8    1
     6     8     1    1
     7     1     2   ar
     8     2     3   ar
     9     3     4   ar
    10     4     5    1
    11     4     6   ar
    12     6     7   ar
    13     7    18    1
    14    18    19    1
    15    19    20    1
    16    11    12   ar
    17    12    13   ar
    18    13    14   ar
    19    14    15    1
    20    14     9   ar
    21     7     1   ar
    22    19    21    1
@<TRIPOS>MOLECULE
*****
 21 22 0 0 0
SMALL
GASTEIGER

@<TRIPOS>ATOM
      1 C         140.5594  140.6555  166.2149 C.ar    1  UNL1        0.1427
      2 C         141.0763  139.8333  165.0717 C.ar    1  UNL1        0.0395
      3 C         142.2584  138.9316  165.2705 C.ar    1  UNL1        0.0327
      4 C         142.9237  138.8521  166.6126 C.ar    1  UNL1        0.1401
      5 F         144.1058  137.9505  166.8114 F       1  UNL1       -0.2042
      6 C         142.4069  139.6743  167.7558 C.ar    1  UNL1        0.0297
      7 C         141.2247  140.5760  167.5569 C.ar    1  UNL1        0.0304
      8 O         139.3773  141.5572  166.0161 O.3     1  UNL1       -0.4538
      9 C         140.7983  144.6193  163.9294 C.ar    1  UNL1       -0.0086
     10 C         140.7206  143.4857  164.9087 C.ar    1  UNL1        0.0341
     11 C         139.4550  142.6908  165.0368 C.ar    1  UNL1        0.1450
     12 C         138.2672  143.0294  164.1857 C.ar    1  UNL1        0.0383
     13 C         138.3450  144.1629  163.2064 C.ar    1  UNL1        0.0142
     14 C         139.6105  144.9579  163.0783 C.ar    1  UNL1        0.0539
     15 CL        139.6882  146.0915  162.0990 Cl      1  UNL1       -0.0826
     16 C         143.3137  144.7580  163.2941 C.3     1  UNL1        0.0051
     17 C         142.0639  145.4143  163.8013 C.3     1  UNL1        0.0273
     18 C         140.7079  141.3982  168.7002 C.3     1  UNL1        0.0988
     19 N         140.5933  142.8873  168.5615 N.3     1  UNL1       -0.2925
     20 C         140.5202  143.7511  169.7856 C.3     1  UNL1        0.0861
     21 H         139.7467  143.0685  168.0222 H       1  UNL1        0.1236
@<TRIPOS>BOND
     1    16    17    1
     2    17     9    1
     3     9    10   ar
     4    10    11   ar
     5    11     8    1
     6     8     1    1
     7     1     2   ar
     8     2     3   ar
     9     3     4   ar
    10     4     5    1
    11     4     6   ar
    12     6     7   ar
    13     7    18    1
    14    18    19    1
    15    19    20    1
    16    11    12   ar
    17    12    13   ar
    18    13    14   ar
    19    14    15    1
    20    14     9   ar
    21     7     1   ar
    22    19    21    1
@<TRIPOS>MOLECULE
*****
 21 22 0 0 0
SMALL
GASTEIGER

@<TRIPOS>ATOM
      1 C         140.2761  139.8130  166.6908 C.ar    1  UNL1        0.1427
      2 C         139.6862  138.9196  165.6401 C.ar    1  UNL1        0.0395
      3 C         138.3844  138.2196  165.8955 C.ar    1  UNL1        0.0327
      4 C         137.6724  138.4131  167.2015 C.ar    1  UNL1        0.1401
      5 F         136.3705  137.7132  167.4569 F       1  UNL1       -0.2042
      6 C         138.2623  139.3065  168.2522 C.ar    1  UNL1        0.0297
      7 C         139.5641  140.0064  167.9968 C.ar    1  UNL1        0.0304
      8 O         141.5780  140.5129  166.4355 O.3     1  UNL1       -0.4538
      9 C         140.3806  143.9446  164.8418 C.ar    1  UNL1       -0.0086
     10 C         140.3608  142.6514  165.6015 C.ar    1  UNL1        0.0341
     11 C         141.5978  141.8062  165.6758 C.ar    1  UNL1        0.1450
     12 C         142.8546  142.2543  164.9904 C.ar    1  UNL1        0.0383
     13 C         142.8744  143.5475  164.2308 C.ar    1  UNL1        0.0142
     14 C         141.6374  144.3927  164.1565 C.ar    1  UNL1        0.0539
     15 CL        141.6572  145.6860  163.3968 Cl      1  UNL1       -0.0826
     16 C         137.8133  144.1504  164.5002 C.3     1  UNL1        0.0051
     17 C         139.1436  144.7898  164.7675 C.3     1  UNL1        0.0273
     18 C         140.1540  140.8999  169.0475 C.3     1  UNL1        0.0988
     19 N         141.5912  140.7409  169.4466 N.3     1  UNL1       -0.2925
     20 C         142.0929  139.4124  169.9295 C.3     1  UNL1        0.0861
     21 H         141.7646  141.4112  170.1956 H       1  UNL1        0.1236
@<TRIPOS>BOND
     1    16    17    1
     2    17     9    1
     3     9    10   ar
     4    10    11   ar
     5    11     8    1
     6     8     1    1
     7     1     2   ar
     8     2     3   ar
     9     3     4   ar
    10     4     5    1
    11     4     6   ar
    12     6     7   ar
    13     7    18    1
    14    18    19    1
    15    19    20    1
    16    11    12   ar
    17    12    13   ar
    18    13    14   ar
    19    14    15    1
    20    14     9   ar
    21     7     1   ar
    22    19    21    1
@<TRIPOS>MOLECULE
*****
 21 22 0 0 0
SMALL
GASTEIGER

@<TRIPOS>ATOM
      1 C         141.6767  139.9496  168.2040 C.ar    1  UNL1        0.1427
      2 C         142.6940  140.3808  169.2185 C.ar    1  UNL1        0.0395
      3 C         142.2574  141.1054  170.4572 C.ar    1  UNL1        0.0327
      4 C         140.8035  141.3987  170.6814 C.ar    1  UNL1        0.1401
      5 F         140.3668  142.1232  171.9201 F       1  UNL1       -0.2042
      6 C         139.7862  140.9675  169.6669 C.ar    1  UNL1        0.0297
      7 C         140.2228  140.2429  168.4282 C.ar    1  UNL1        0.0304
      8 O         142.1133  139.2250  166.9653 O.3     1  UNL1       -0.4538
      9 C         144.1379  142.0232  165.0105 C.ar    1  UNL1       -0.0086
     10 C         143.1778  141.3718  165.9612 C.ar    1  UNL1        0.0341
     11 C         143.0734  139.8764  166.0145 C.ar    1  UNL1        0.1450
     12 C         143.9290  139.0324  165.1170 C.ar    1  UNL1        0.0383
     13 C         144.8891  139.6837  164.1663 C.ar    1  UNL1        0.0142
     14 C         144.9935  141.1791  164.1130 C.ar    1  UNL1        0.0539
     15 CL        145.9537  141.8305  163.1622 Cl      1  UNL1       -0.0826
     16 C         143.3783  144.2975  164.0102 C.3     1  UNL1        0.0051
     17 C         144.2423  143.5186  164.9572 C.3     1  UNL1        0.0273
     18 C         139.2055  139.8117  167.4137 C.3     1  UNL1        0.0988
     19 N         139.3253  140.2692  165.9902 N.3     1  UNL1       -0.2925
     20 C         139.5076  141.7261  165.6836 C.3     1  UNL1        0.0861
     21 H         138.4742  139.9721  165.5129 H       1  UNL1        0.1236
@<TRIPOS>BOND
     1    16    17    1
     2    17     9    1
     3     9    10   ar
     4    10    11   ar
     5    11     8    1
     6     8     1    1
     7     1     2   ar
     8     2     3   ar
     9     3     4   ar
    10     4     5    1
    11     4     6   ar
    12     6     7   ar
    13     7    18    1
    14    18    19    1
    15    19    20    1
    16    11    12   ar
    17    12    13   ar
    18    13    14   ar
    19    14    15    1
    20    14     9   ar
    21     7     1   ar
    22    19    21    1
@<TRIPOS>MOLECULE
*****
 21 22 0 0 0
SMALL
GASTEIGER

@<TRIPOS>ATOM
      1 C         140.3489  143.0774  163.8824 C.ar    1  UNL1        0.1427
      2 C         141.4249  143.8395  163.1672 C.ar    1  UNL1        0.0395
      3 C         141.0768  145.0668  162.3781 C.ar    1  UNL1        0.0327
      4 C         139.6526  145.5319  162.3042 C.ar    1  UNL1        0.1401
      5 F         139.3044  146.7592  161.5151 F       1  UNL1       -0.2042
      6 C         138.5766  144.7699  163.0194 C.ar    1  UNL1        0.0297
      7 C         138.9248  143.5426  163.8084 C.ar    1  UNL1        0.0304
      8 O         140.6970  141.8502  164.6715 O.3     1  UNL1       -0.4538
      9 C         140.8676  141.9691  168.6346 C.ar    1  UNL1       -0.0086
     10 C         140.3246  141.8367  167.2427 C.ar    1  UNL1        0.0341
     11 C         141.2401  141.9826  166.0635 C.ar    1  UNL1        0.1450
     12 C         142.6986  142.2608  166.2762 C.ar    1  UNL1        0.0383
     13 C         143.2416  142.3932  167.6682 C.ar    1  UNL1        0.0142
     14 C         142.3261  142.2474  168.8474 C.ar    1  UNL1        0.0539
     15 CL        142.8691  142.3797  170.2394 Cl      1  UNL1       -0.0826
     16 C         139.0887  140.6038  169.9468 C.3     1  UNL1        0.0051
     17 C         139.9520  141.8232  169.8139 C.3     1  UNL1        0.0273
     18 C         137.8487  142.7805  164.5236 C.3     1  UNL1        0.0988
     19 N         137.5389  141.3680  164.1253 N.3     1  UNL1       -0.2925
     20 C         137.5649  140.9739  162.6783 C.3     1  UNL1        0.0861
     21 H         136.6004  141.1642  164.4691 H       1  UNL1        0.1236
@<TRIPOS>BOND
     1    16    17    1
     2    17     9    1
     3     9    10   ar
     4    10    11   ar
     5    11     8    1
     6     8     1    1
     7     1     2   ar
     8     2     3   ar
     9     3     4   ar
    10     4     5    1
    11     4     6   ar
    12     6     7   ar
    13     7    18    1
    14    18    19    1
    15    19    20    1
    16    11    12   ar
    17    12    13   ar
    18    13    14   ar
    19    14    15    1
    20    14     9   ar
    21     7     1   ar
    22    19    21    1
@<TRIPOS>MOLECULE
*****
 21 22 0 0 0
SMALL
GASTEIGER

@<TRIPOS>ATOM
      1 C         140.8287  140.3899  167.7387 C.ar    1  UNL1        0.1427
      2 C         139.6975  139.9721  168.6309 C.ar    1  UNL1        0.0395
      3 C         139.2303  140.8839  169.7264 C.ar    1  UNL1        0.0327
      4 C         139.8942  142.2136  169.9297 C.ar    1  UNL1        0.1401
      5 F         139.4269  143.1255  171.0253 F       1  UNL1       -0.2042
      6 C         141.0253  142.6314  169.0376 C.ar    1  UNL1        0.0297
      7 C         141.4926  141.7195  167.9421 C.ar    1  UNL1        0.0304
      8 O         141.2960  139.4780  166.6432 O.3     1  UNL1       -0.4538
      9 C         138.5375  139.9712  163.8330 C.ar    1  UNL1       -0.0086
     10 C         139.4243  140.2430  165.0118 C.ar    1  UNL1        0.0341
     11 C         140.4092  139.2061  165.4643 C.ar    1  UNL1        0.1450
     12 C         140.5072  137.8973  164.7381 C.ar    1  UNL1        0.0383
     13 C         139.6204  137.6255  163.5593 C.ar    1  UNL1        0.0142
     14 C         138.6355  138.6624  163.1068 C.ar    1  UNL1        0.0539
     15 CL        137.7487  138.3905  161.9279 Cl      1  UNL1       -0.0826
     16 C         137.6661  142.4183  163.8787 C.3     1  UNL1        0.0051
     17 C         137.5526  141.0081  163.3804 C.3     1  UNL1        0.0273
     18 C         142.6237  142.1373  167.0499 C.3     1  UNL1        0.0988
     19 N         142.4461  142.1305  165.5605 N.3     1  UNL1       -0.2925
     20 C         141.6921  143.2404  164.8901 C.3     1  UNL1        0.0861
     21 H         141.9639  141.2630  165.3254 H       1  UNL1        0.1236
@<TRIPOS>BOND
     1    16    17    1
     2    17     9    1
     3     9    10   ar
     4    10    11   ar
     5    11     8    1
     6     8     1    1
     7     1     2   ar
     8     2     3   ar
     9     3     4   ar
    10     4     5    1
    11     4     6   ar
    12     6     7   ar
    13     7    18    1
    14    18    19    1
    15    19    20    1
    16    11    12   ar
    17    12    13   ar
    18    13    14   ar
    19    14    15    1
    20    14     9   ar
    21     7     1   ar
    22    19    21    1
@<TRIPOS>MOLECULE
*****
 21 22 0 0 0
SMALL
GASTEIGER

@<TRIPOS>ATOM
      1 C         140.3473  139.9761  167.9266 C.ar    1  UNL1        0.1427
      2 C         139.4444  140.2432  169.0943 C.ar    1  UNL1        0.0395
      3 C         140.0129  140.7787  170.3749 C.ar    1  UNL1        0.0327
      4 C         141.4844  141.0472  170.4878 C.ar    1  UNL1        0.1401
      5 F         142.0529  141.5828  171.7684 F       1  UNL1       -0.2042
      6 C         142.3873  140.7801  169.3201 C.ar    1  UNL1        0.0297
      7 C         141.8187  140.2446  168.0396 C.ar    1  UNL1        0.0304
      8 O         139.7788  139.4405  166.6460 O.3     1  UNL1       -0.4538
      9 C         138.9203  142.7960  164.7087 C.ar    1  UNL1       -0.0086
     10 C         139.4847  141.8541  165.7305 C.ar    1  UNL1        0.0341
     11 C         139.2144  140.3825  165.6241 C.ar    1  UNL1        0.1450
     12 C         138.3797  139.8528  164.4960 C.ar    1  UNL1        0.0383
     13 C         137.8153  140.7948  163.4742 C.ar    1  UNL1        0.0142
     14 C         138.0856  142.2664  163.5805 C.ar    1  UNL1        0.0539
     15 CL        137.5211  143.2084  162.5587 Cl      1  UNL1       -0.0826
     16 C         138.4162  145.1039  165.7902 C.3     1  UNL1        0.0051
     17 C         139.1906  144.2677  164.8150 C.3     1  UNL1        0.0273
     18 C         142.7217  139.9775  166.8719 C.3     1  UNL1        0.0988
     19 N         142.7814  138.6056  166.2683 N.3     1  UNL1       -0.2925
     20 C         142.4846  138.4141  164.8105 C.3     1  UNL1        0.0861
     21 H         142.1159  138.0285  166.7826 H       1  UNL1        0.1236
@<TRIPOS>BOND
     1    16    17    1
     2    17     9    1
     3     9    10   ar
     4    10    11   ar
     5    11     8    1
     6     8     1    1
     7     1     2   ar
     8     2     3   ar
     9     3     4   ar
    10     4     5    1
    11     4     6   ar
    12     6     7   ar
    13     7    18    1
    14    18    19    1
    15    19    20    1
    16    11    12   ar
    17    12    13   ar
    18    13    14   ar
    19    14    15    1
    20    14     9   ar
    21     7     1   ar
    22    19    21    1
