@<TRIPOS>MOLECULE
*****
 30 33 0 0 0
SMALL
GASTEIGER

@<TRIPOS>ATOM
      1 C         142.2995  145.3908  163.6416 C.3     1  UNL1        0.1151
      2 N         140.4109  143.7254  162.7448 N.ar    1  UNL1       -0.3070
      3 C         139.1162  143.8895  162.0052 C.ar    1  UNL1        0.1786
      4 N         138.9103  145.3533  161.7503 N.ar    1  UNL1       -0.2226
      5 C         140.0778  146.0939  162.3323 C.ar    1  UNL1        0.1147
      6 C         141.0051  145.0878  162.9469 C.ar    1  UNL1        0.0739
      7 C         141.0067  142.4269  163.2019 C.3     1  UNL1        0.1340
      8 C         138.6095  139.6424  165.7999 C.ar    1  UNL1        0.0684
      9 C         138.4530  139.5979  164.3088 C.ar    1  UNL1        0.0100
     10 C         139.2520  140.5261  163.4428 C.ar    1  UNL1       -0.0017
     11 C         140.2076  141.4988  164.0679 C.ar    1  UNL1        0.0005
     12 C         140.3641  141.5432  165.5590 C.ar    1  UNL1       -0.0017
     13 C         139.5651  140.6150  166.4250 C.ar    1  UNL1        0.0100
     14 N         137.0114  137.7861  167.5320 N.1     1  UNL1       -0.1908
     15 C         137.8104  138.7142  166.6660 C.1     1  UNL1        0.1004
     16 N         143.6021  145.1624  162.9337 N.3     1  UNL1       -0.2863
     17 H         144.3291  145.5849  163.5111 H       1  UNL1        0.1240
     18 C         144.0525  143.7656  162.6237 C.3     1  UNL1        0.1337
     19 C         144.4680  143.2516  161.2772 C.3     1  UNL1        0.0466
     20 C         144.8388  141.8059  161.4271 C.3     1  UNL1        0.0957
     21 N         144.6525  141.4265  162.8663 N.am    1  UNL1       -0.2743
     22 C         144.1665  142.6377  163.6058 C.2     1  UNL1        0.2402
     23 O         143.8502  142.7084  165.0704 O.2     1  UNL1       -0.2734
     24 C         144.9073  140.0735  163.4615 C.3     1  UNL1        0.1202
     25 C         143.7549  139.2055  163.8722 C.ar    1  UNL1       -0.0023
     26 C         143.4501  139.0024  165.3268 C.ar    1  UNL1       -0.0026
     27 C         142.2977  138.1345  165.7375 C.ar    1  UNL1       -0.0003
     28 C         141.4501  137.4698  164.6935 C.ar    1  UNL1       -0.0000
     29 C         141.7549  137.6730  163.2390 C.ar    1  UNL1       -0.0003
     30 C         142.9073  138.5409  162.8283 C.ar    1  UNL1       -0.0026
@<TRIPOS>BOND
     1    14    15    3
     2    15     8    1
     3     8     9   ar
     4     9    10   ar
     5    10    11   ar
     6    11     7    1
     7     7     2    1
     8     2     3   ar
     9     3     4   ar
    10     4     5   ar
    11     5     6   ar
    12     6     1    1
    13     1    16    1
    14    18    16    1
    15    18    19    1
    16    19    20    1
    17    20    21    1
    18    21    24    1
    19    24    25    1
    20    25    26   ar
    21    26    27   ar
    22    27    28   ar
    23    28    29   ar
    24    29    30   ar
    25    21    22   am
    26    22    23    2
    27    11    12   ar
    28    12    13   ar
    29    13     8   ar
    30     6     2   ar
    31    22    18    1
    32    30    25   ar
    33    16    17    1
@<TRIPOS>MOLECULE
*****
 30 33 0 0 0
SMALL
GASTEIGER

@<TRIPOS>ATOM
      1 C         137.5031  142.4979  163.2496 C.3     1  UNL1        0.1151
      2 N         139.5110  144.0674  162.4434 N.ar    1  UNL1       -0.3070
      3 C         140.1426  144.3864  161.1207 C.ar    1  UNL1        0.1786
      4 N         139.4230  143.6036  160.0626 N.ar    1  UNL1       -0.2226
      5 C         138.3466  142.8009  160.7314 C.ar    1  UNL1        0.1147
      6 C         138.4010  143.0876  162.2027 C.ar    1  UNL1        0.0739
      7 C         139.9179  144.6296  163.7732 C.3     1  UNL1        0.1340
      8 C         141.7436  141.9436  166.8880 C.ar    1  UNL1        0.0684
      9 C         140.4585  142.6612  167.1766 C.ar    1  UNL1        0.0100
     10 C         139.8499  143.5566  166.1383 C.ar    1  UNL1       -0.0017
     11 C         140.5265  143.7343  164.8114 C.ar    1  UNL1        0.0005
     12 C         141.8116  143.0166  164.5229 C.ar    1  UNL1       -0.0017
     13 C         142.4202  142.1213  165.5612 C.ar    1  UNL1        0.0100
     14 N         142.9607  140.1529  168.9646 N.1     1  UNL1       -0.1908
     15 C         142.3522  141.0483  167.9263 C.1     1  UNL1        0.1004
     16 N         136.9169  141.1314  163.0518 N.3     1  UNL1       -0.2863
     17 H         136.3178  141.1845  162.2281 H       1  UNL1        0.1240
     18 C         137.8193  139.9494  162.8555 C.3     1  UNL1        0.1337
     19 C         137.8218  139.0292  161.6710 C.3     1  UNL1        0.0466
     20 C         138.8817  137.9911  161.8927 C.3     1  UNL1        0.0957
     21 N         139.5341  138.2697  163.2143 N.am    1  UNL1       -0.2743
     22 C         138.8775  139.4800  163.8094 C.2     1  UNL1        0.2402
     23 O         139.2192  140.1103  165.1270 O.2     1  UNL1       -0.2734
     24 C         140.6476  137.4772  163.8323 C.3     1  UNL1        0.1202
     25 C         141.9928  138.1083  164.0383 C.ar    1  UNL1       -0.0023
     26 C         142.6001  138.1489  165.4092 C.ar    1  UNL1       -0.0026
     27 C         143.9453  138.7799  165.6151 C.ar    1  UNL1       -0.0003
     28 C         144.6830  139.3703  164.4501 C.ar    1  UNL1       -0.0000
     29 C         144.0756  139.3296  163.0792 C.ar    1  UNL1       -0.0003
     30 C         142.7305  138.6986  162.8733 C.ar    1  UNL1       -0.0026
@<TRIPOS>BOND
     1    14    15    3
     2    15     8    1
     3     8     9   ar
     4     9    10   ar
     5    10    11   ar
     6    11     7    1
     7     7     2    1
     8     2     3   ar
     9     3     4   ar
    10     4     5   ar
    11     5     6   ar
    12     6     1    1
    13     1    16    1
    14    18    16    1
    15    18    19    1
    16    19    20    1
    17    20    21    1
    18    21    24    1
    19    24    25    1
    20    25    26   ar
    21    26    27   ar
    22    27    28   ar
    23    28    29   ar
    24    29    30   ar
    25    21    22   am
    26    22    23    2
    27    11    12   ar
    28    12    13   ar
    29    13     8   ar
    30     6     2   ar
    31    22    18    1
    32    30    25   ar
    33    16    17    1
@<TRIPOS>MOLECULE
*****
 30 33 0 0 0
SMALL
GASTEIGER

@<TRIPOS>ATOM
      1 C         137.6915  138.8899  161.5055 C.3     1  UNL1        0.1151
      2 N         139.7847  137.8289  162.7854 N.ar    1  UNL1       -0.3070
      3 C         141.2440  137.6663  162.4790 C.ar    1  UNL1        0.1786
      4 N         141.5031  138.2621  161.1269 N.ar    1  UNL1       -0.2226
      5 C         140.2038  138.7930  160.5977 C.ar    1  UNL1        0.1147
      6 C         139.1418  138.5253  161.6226 C.ar    1  UNL1        0.0739
      7 C         139.0901  137.3749  164.0349 C.3     1  UNL1        0.1340
      8 C         139.3598  139.8485  167.7844 C.ar    1  UNL1        0.0684
      9 C         138.1379  139.0201  167.5187 C.ar    1  UNL1        0.0100
     10 C         138.0480  138.1955  166.2689 C.ar    1  UNL1       -0.0017
     11 C         139.1800  138.1995  165.2848 C.ar    1  UNL1        0.0005
     12 C         140.4019  139.0279  165.5505 C.ar    1  UNL1       -0.0017
     13 C         140.4918  139.8524  166.8003 C.ar    1  UNL1        0.0100
     14 N         139.5396  141.4976  170.2841 N.1     1  UNL1       -0.1908
     15 C         139.4497  140.6731  169.0342 C.1     1  UNL1        0.1004
     16 N         137.2770  140.3314  161.5198 N.3     1  UNL1       -0.2863
     17 H         136.2595  140.3445  161.5895 H       1  UNL1        0.1240
     18 C         137.7958  141.2505  162.5857 C.3     1  UNL1        0.1337
     19 C         137.5451  141.1223  164.0591 C.3     1  UNL1        0.0466
     20 C         138.2508  142.2518  164.7493 C.3     1  UNL1        0.0957
     21 N         138.9376  143.0779  163.7026 N.am    1  UNL1       -0.2743
     22 C         138.6564  142.4591  162.3654 C.2     1  UNL1        0.2402
     23 O         139.1493  142.9608  161.0405 O.2     1  UNL1       -0.2734
     24 C         139.7610  144.3071  163.9496 C.3     1  UNL1        0.1202
     25 C         141.2328  144.1836  164.2122 C.ar    1  UNL1       -0.0023
     26 C         142.1754  145.2360  163.7082 C.ar    1  UNL1       -0.0026
     27 C         143.6470  145.1126  163.9708 C.ar    1  UNL1       -0.0003
     28 C         144.1760  143.9368  164.7375 C.ar    1  UNL1       -0.0000
     29 C         143.2334  142.8845  165.2415 C.ar    1  UNL1       -0.0003
     30 C         141.7617  143.0079  164.9788 C.ar    1  UNL1       -0.0026
@<TRIPOS>BOND
     1    14    15    3
     2    15     8    1
     3     8     9   ar
     4     9    10   ar
     5    10    11   ar
     6    11     7    1
     7     7     2    1
     8     2     3   ar
     9     3     4   ar
    10     4     5   ar
    11     5     6   ar
    12     6     1    1
    13     1    16    1
    14    18    16    1
    15    18    19    1
    16    19    20    1
    17    20    21    1
    18    21    24    1
    19    24    25    1
    20    25    26   ar
    21    26    27   ar
    22    27    28   ar
    23    28    29   ar
    24    29    30   ar
    25    21    22   am
    26    22    23    2
    27    11    12   ar
    28    12    13   ar
    29    13     8   ar
    30     6     2   ar
    31    22    18    1
    32    30    25   ar
    33    16    17    1
@<TRIPOS>MOLECULE
*****
 30 33 0 0 0
SMALL
GASTEIGER

@<TRIPOS>ATOM
      1 C         138.4222  137.9421  162.4931 C.3     1  UNL1        0.1151
      2 N         137.9972  140.2170  163.8306 N.ar    1  UNL1       -0.3070
      3 C         137.6103  141.6152  163.4493 C.ar    1  UNL1        0.1786
      4 N         137.4434  141.6600  161.9592 N.ar    1  UNL1       -0.2226
      5 C         137.7273  140.2894  161.4196 C.ar    1  UNL1        0.1147
      6 C         138.0695  139.3976  162.5762 C.ar    1  UNL1        0.0739
      7 C         138.2649  139.7247  165.2220 C.3     1  UNL1        0.1340
      8 C         141.6328  141.4935  167.6257 C.ar    1  UNL1        0.0684
      9 C         141.5059  141.8117  166.1654 C.ar    1  UNL1        0.0100
     10 C         140.3832  141.2221  165.3641 C.ar    1  UNL1       -0.0017
     11 C         139.3875  140.3143  166.0232 C.ar    1  UNL1        0.0005
     12 C         139.5145  139.9961  167.4835 C.ar    1  UNL1       -0.0017
     13 C         140.6371  140.5857  168.2848 C.ar    1  UNL1        0.0100
     14 N         143.8782  142.6727  169.2282 N.1     1  UNL1       -0.1908
     15 C         142.7555  142.0831  168.4270 C.1     1  UNL1        0.1004
     16 N         139.7891  137.5264  162.0361 N.3     1  UNL1       -0.2863
     17 H         139.8511  137.7579  161.0446 H       1  UNL1        0.1240
     18 C         141.0075  138.1046  162.6927 C.3     1  UNL1        0.1337
     19 C         141.5142  137.7671  164.0636 C.3     1  UNL1        0.0466
     20 C         142.7531  138.5757  164.3119 C.3     1  UNL1        0.0957
     21 N         143.0119  139.4127  163.0945 N.am    1  UNL1       -0.2743
     22 C         141.9332  139.1216  162.0938 C.2     1  UNL1        0.2402
     23 O         141.8029  139.7391  160.7330 O.2     1  UNL1       -0.2734
     24 C         144.1498  140.3725  162.9101 C.3     1  UNL1        0.1202
     25 C         144.0288  141.7833  163.4051 C.ar    1  UNL1       -0.0023
     26 C         143.2265  142.7846  162.6280 C.ar    1  UNL1       -0.0026
     27 C         143.1056  144.1954  163.1231 C.ar    1  UNL1       -0.0003
     28 C         143.7868  144.6048  164.3952 C.ar    1  UNL1       -0.0000
     29 C         144.5890  143.6035  165.1723 C.ar    1  UNL1       -0.0003
     30 C         144.7100  142.1928  164.6772 C.ar    1  UNL1       -0.0026
@<TRIPOS>BOND
     1    14    15    3
     2    15     8    1
     3     8     9   ar
     4     9    10   ar
     5    10    11   ar
     6    11     7    1
     7     7     2    1
     8     2     3   ar
     9     3     4   ar
    10     4     5   ar
    11     5     6   ar
    12     6     1    1
    13     1    16    1
    14    18    16    1
    15    18    19    1
    16    19    20    1
    17    20    21    1
    18    21    24    1
    19    24    25    1
    20    25    26   ar
    21    26    27   ar
    22    27    28   ar
    23    28    29   ar
    24    29    30   ar
    25    21    22   am
    26    22    23    2
    27    11    12   ar
    28    12    13   ar
    29    13     8   ar
    30     6     2   ar
    31    22    18    1
    32    30    25   ar
    33    16    17    1
@<TRIPOS>MOLECULE
*****
 30 33 0 0 0
SMALL
GASTEIGER

@<TRIPOS>ATOM
      1 C         143.5813  144.7513  162.9207 C.3     1  UNL1        0.1151
      2 N         144.6473  142.7288  164.3057 N.ar    1  UNL1       -0.3070
      3 C         145.3753  141.4667  163.9494 C.ar    1  UNL1        0.1786
      4 N         145.4881  141.4027  162.4549 N.ar    1  UNL1       -0.2226
      5 C         144.8298  142.6255  161.8877 C.ar    1  UNL1        0.1147
      6 C         144.3101  143.4450  163.0315 C.ar    1  UNL1        0.0739
      7 C         144.3148  143.1933  165.6927 C.3     1  UNL1        0.1340
      8 C         140.9866  141.2190  167.9894 C.ar    1  UNL1        0.0684
      9 C         140.8571  141.4248  166.5092 C.ar    1  UNL1        0.0100
     10 C         141.9665  142.0829  165.7437 C.ar    1  UNL1       -0.0017
     11 C         143.2054  142.5352  166.4582 C.ar    1  UNL1        0.0005
     12 C         143.3348  142.3293  167.9384 C.ar    1  UNL1       -0.0017
     13 C         142.2254  141.6712  168.7039 C.ar    1  UNL1        0.0100
     14 N         138.7677  139.9028  169.5205 N.1     1  UNL1       -0.1908
     15 C         139.8771  140.5609  168.7549 C.1     1  UNL1        0.1004
     16 N         142.2865  144.8262  162.1671 N.3     1  UNL1       -0.2863
     17 H         142.4437  144.3749  161.2660 H       1  UNL1        0.1240
     18 C         141.0450  144.2154  162.7465 C.3     1  UNL1        0.1337
     19 C         140.2290  144.7771  163.8729 C.3     1  UNL1        0.0466
     20 C         139.0813  143.8444  164.1237 C.3     1  UNL1        0.0957
     21 N         139.1880  142.7064  163.1524 N.am    1  UNL1       -0.2743
     22 C         140.4017  142.9357  162.3012 C.2     1  UNL1        0.2402
     23 O         140.8867  142.0420  161.1984 O.2     1  UNL1       -0.2734
     24 C         138.2464  141.5433  163.0502 C.3     1  UNL1        0.1202
     25 C         138.5566  140.2620  163.7659 C.ar    1  UNL1       -0.0023
     26 C         138.0151  140.0228  165.1441 C.ar    1  UNL1       -0.0026
     27 C         138.3253  138.7415  165.8597 C.ar    1  UNL1       -0.0003
     28 C         139.1769  137.6995  165.1971 C.ar    1  UNL1       -0.0000
     29 C         139.7183  137.9388  163.8189 C.ar    1  UNL1       -0.0003
     30 C         139.4081  139.2201  163.1033 C.ar    1  UNL1       -0.0026
@<TRIPOS>BOND
     1    14    15    3
     2    15     8    1
     3     8     9   ar
     4     9    10   ar
     5    10    11   ar
     6    11     7    1
     7     7     2    1
     8     2     3   ar
     9     3     4   ar
    10     4     5   ar
    11     5     6   ar
    12     6     1    1
    13     1    16    1
    14    18    16    1
    15    18    19    1
    16    19    20    1
    17    20    21    1
    18    21    24    1
    19    24    25    1
    20    25    26   ar
    21    26    27   ar
    22    27    28   ar
    23    28    29   ar
    24    29    30   ar
    25    21    22   am
    26    22    23    2
    27    11    12   ar
    28    12    13   ar
    29    13     8   ar
    30     6     2   ar
    31    22    18    1
    32    30    25   ar
    33    16    17    1
@<TRIPOS>MOLECULE
*****
 30 33 0 0 0
SMALL
GASTEIGER

@<TRIPOS>ATOM
      1 C         143.5790  137.9364  161.6732 C.3     1  UNL1        0.1151
      2 N         144.4145  140.3963  162.3024 N.ar    1  UNL1       -0.3070
      3 C         144.3514  141.7401  161.6387 C.ar    1  UNL1        0.1786
      4 N         143.6412  141.5766  160.3276 N.ar    1  UNL1       -0.2226
      5 C         143.2654  140.1318  160.1809 C.ar    1  UNL1        0.1147
      6 C         143.7433  139.4024  161.4014 C.ar    1  UNL1        0.0739
      7 C         145.0392  140.0988  163.6332 C.3     1  UNL1        0.1340
      8 C         142.4717  139.8622  167.3213 C.ar    1  UNL1        0.0684
      9 C         142.6646  141.1766  166.6248 C.ar    1  UNL1        0.0100
     10 C         143.5204  141.2554  165.3955 C.ar    1  UNL1       -0.0017
     11 C         144.1833  140.0199  164.8626 C.ar    1  UNL1        0.0005
     12 C         143.9904  138.7055  165.5591 C.ar    1  UNL1       -0.0017
     13 C         143.1345  138.6267  166.7884 C.ar    1  UNL1        0.0100
     14 N         140.7600  139.7045  169.7800 N.1     1  UNL1       -0.1908
     15 C         141.6158  139.7833  168.5507 C.1     1  UNL1        0.1004
     16 N         142.2106  137.3220  161.6712 N.3     1  UNL1       -0.2863
     17 H         142.3373  136.3205  161.8173 H       1  UNL1        0.1240
     18 C         141.1823  137.7777  162.6637 C.3     1  UNL1        0.1337
     19 C         141.0275  137.2728  164.0676 C.3     1  UNL1        0.0466
     20 C         139.8778  138.0014  164.6981 C.3     1  UNL1        0.0957
     21 N         139.3222  138.9565  163.6838 N.am    1  UNL1       -0.2743
     22 C         140.1284  138.8183  162.4265 C.2     1  UNL1        0.2402
     23 O         139.9177  139.5859  161.1551 O.2     1  UNL1       -0.2734
     24 C         138.1637  139.8866  163.8905 C.3     1  UNL1        0.1202
     25 C         138.4093  141.3231  164.2461 C.ar    1  UNL1       -0.0023
     26 C         139.4396  141.6747  165.2780 C.ar    1  UNL1       -0.0026
     27 C         139.6852  143.1111  165.6335 C.ar    1  UNL1       -0.0003
     28 C         138.9004  144.1959  164.9572 C.ar    1  UNL1       -0.0000
     29 C         137.8701  143.8442  163.9253 C.ar    1  UNL1       -0.0003
     30 C         137.6245  142.4078  163.5698 C.ar    1  UNL1       -0.0026
@<TRIPOS>BOND
     1    14    15    3
     2    15     8    1
     3     8     9   ar
     4     9    10   ar
     5    10    11   ar
     6    11     7    1
     7     7     2    1
     8     2     3   ar
     9     3     4   ar
    10     4     5   ar
    11     5     6   ar
    12     6     1    1
    13     1    16    1
    14    18    16    1
    15    18    19    1
    16    19    20    1
    17    20    21    1
    18    21    24    1
    19    24    25    1
    20    25    26   ar
    21    26    27   ar
    22    27    28   ar
    23    28    29   ar
    24    29    30   ar
    25    21    22   am
    26    22    23    2
    27    11    12   ar
    28    12    13   ar
    29    13     8   ar
    30     6     2   ar
    31    22    18    1
    32    30    25   ar
    33    16    17    1
@<TRIPOS>MOLECULE
*****
 30 33 0 0 0
SMALL
GASTEIGER

@<TRIPOS>ATOM
      1 C         141.1324  137.1289  164.5429 C.3     1  UNL1        0.1151
      2 N         139.8964  139.3152  165.4581 N.ar    1  UNL1       -0.3070
      3 C         138.5453  139.6035  166.0424 C.ar    1  UNL1        0.1786
      4 N         137.7757  138.3167  166.0880 N.ar    1  UNL1       -0.2226
      5 C         138.6512  137.2331  165.5318 C.ar    1  UNL1        0.1147
      6 C         139.9618  137.8501  165.1425 C.ar    1  UNL1        0.0739
      7 C         140.9900  140.3160  165.2295 C.3     1  UNL1        0.1340
      8 C         140.1260  144.1196  162.9853 C.ar    1  UNL1        0.0684
      9 C         140.4000  144.1642  164.4593 C.ar    1  UNL1        0.0100
     10 C         140.6880  142.8964  165.2074 C.ar    1  UNL1       -0.0017
     11 C         140.7020  141.5839  164.4814 C.ar    1  UNL1        0.0005
     12 C         140.4280  141.5392  163.0073 C.ar    1  UNL1       -0.0017
     13 C         140.1400  142.8071  162.2593 C.ar    1  UNL1        0.0100
     14 N         139.5500  146.6553  161.4891 N.1     1  UNL1       -0.1908
     15 C         139.8380  145.3874  162.2372 C.1     1  UNL1        0.1004
     16 N         141.2933  137.0691  163.0527 N.3     1  UNL1       -0.2863
     17 H         140.3559  136.9908  162.6583 H       1  UNL1        0.1240
     18 C         141.9764  138.1897  162.3264 C.3     1  UNL1        0.1337
     19 C         141.6364  138.6868  160.9527 C.3     1  UNL1        0.0466
     20 C         142.5694  139.8143  160.6236 C.3     1  UNL1        0.0957
     21 N         143.4860  140.0140  161.7940 N.am    1  UNL1       -0.2743
     22 C         143.1196  139.0099  162.8464 C.2     1  UNL1        0.2402
     23 O         143.7803  138.8535  164.1840 O.2     1  UNL1       -0.2734
     24 C         144.5775  141.0379  161.8944 C.3     1  UNL1        0.1202
     25 C         144.3874  142.2555  162.7497 C.ar    1  UNL1       -0.0023
     26 C         143.9728  143.5543  162.1240 C.ar    1  UNL1       -0.0026
     27 C         143.7827  144.7717  162.9793 C.ar    1  UNL1       -0.0003
     28 C         144.0071  144.6905  164.4602 C.ar    1  UNL1       -0.0000
     29 C         144.4217  143.3918  165.0858 C.ar    1  UNL1       -0.0003
     30 C         144.6118  142.1743  164.2305 C.ar    1  UNL1       -0.0026
@<TRIPOS>BOND
     1    14    15    3
     2    15     8    1
     3     8     9   ar
     4     9    10   ar
     5    10    11   ar
     6    11     7    1
     7     7     2    1
     8     2     3   ar
     9     3     4   ar
    10     4     5   ar
    11     5     6   ar
    12     6     1    1
    13     1    16    1
    14    18    16    1
    15    18    19    1
    16    19    20    1
    17    20    21    1
    18    21    24    1
    19    24    25    1
    20    25    26   ar
    21    26    27   ar
    22    27    28   ar
    23    28    29   ar
    24    29    30   ar
    25    21    22   am
    26    22    23    2
    27    11    12   ar
    28    12    13   ar
    29    13     8   ar
    30     6     2   ar
    31    22    18    1
    32    30    25   ar
    33    16    17    1
@<TRIPOS>MOLECULE
*****
 30 33 0 0 0
SMALL
GASTEIGER

@<TRIPOS>ATOM
      1 C         144.7907  139.3047  164.1482 C.3     1  UNL1        0.1151
      2 N         142.4782  138.5910  165.2832 N.ar    1  UNL1       -0.3070
      3 C         141.1638  138.0741  164.7780 C.ar    1  UNL1        0.1786
      4 N         141.2529  137.9614  163.2849 N.ar    1  UNL1       -0.2226
      5 C         142.6225  138.4087  162.8672 C.ar    1  UNL1        0.1147
      6 C         143.3797  138.7978  164.1022 C.ar    1  UNL1        0.0739
      7 C         142.8295  138.8549  166.7174 C.3     1  UNL1        0.1340
      8 C         141.0924  142.4225  168.8398 C.ar    1  UNL1        0.0684
      9 C         140.3658  141.1104  168.8605 C.ar    1  UNL1        0.0100
     10 C         140.9449  139.9212  168.1530 C.ar    1  UNL1       -0.0017
     11 C         142.2504  140.0441  167.4248 C.ar    1  UNL1        0.0005
     12 C         142.9770  141.3562  167.4041 C.ar    1  UNL1       -0.0017
     13 C         142.3980  142.5454  168.1116 C.ar    1  UNL1        0.0100
     14 N         139.9343  144.8009  170.2547 N.1     1  UNL1       -0.1908
     15 C         140.5134  143.6117  169.5473 C.1     1  UNL1        0.1004
     16 N         145.1811  140.5103  163.3456 N.3     1  UNL1       -0.2863
     17 H         144.9466  140.3059  162.3742 H       1  UNL1        0.1240
     18 C         144.5827  141.8487  163.6631 C.3     1  UNL1        0.1337
     19 C         145.0775  142.8118  164.7012 C.3     1  UNL1        0.0466
     20 C         144.1850  144.0172  164.6779 C.3     1  UNL1        0.0957
     21 N         143.1387  143.7990  163.6255 N.am    1  UNL1       -0.2743
     22 C         143.3845  142.4588  162.9983 C.2     1  UNL1        0.2402
     23 O         142.5743  141.8377  161.8993 O.2     1  UNL1       -0.2734
     24 C         142.0396  144.7535  163.2637 C.3     1  UNL1        0.1202
     25 C         140.6277  144.4638  163.6793 C.ar    1  UNL1       -0.0023
     26 C         140.3533  143.8228  165.0074 C.ar    1  UNL1       -0.0026
     27 C         138.9414  143.5331  165.4229 C.ar    1  UNL1       -0.0003
     28 C         137.8040  143.8845  164.5104 C.ar    1  UNL1       -0.0000
     29 C         138.0784  144.5255  163.1823 C.ar    1  UNL1       -0.0003
     30 C         139.4903  144.8152  162.7668 C.ar    1  UNL1       -0.0026
@<TRIPOS>BOND
     1    14    15    3
     2    15     8    1
     3     8     9   ar
     4     9    10   ar
     5    10    11   ar
     6    11     7    1
     7     7     2    1
     8     2     3   ar
     9     3     4   ar
    10     4     5   ar
    11     5     6   ar
    12     6     1    1
    13     1    16    1
    14    18    16    1
    15    18    19    1
    16    19    20    1
    17    20    21    1
    18    21    24    1
    19    24    25    1
    20    25    26   ar
    21    26    27   ar
    22    27    28   ar
    23    28    29   ar
    24    29    30   ar
    25    21    22   am
    26    22    23    2
    27    11    12   ar
    28    12    13   ar
    29    13     8   ar
    30     6     2   ar
    31    22    18    1
    32    30    25   ar
    33    16    17    1
@<TRIPOS>MOLECULE
*****
 30 33 0 0 0
SMALL
GASTEIGER

@<TRIPOS>ATOM
      1 C         141.1202  136.9337  164.5716 C.3     1  UNL1        0.1151
      2 N         142.9734  138.8251  164.9370 N.ar    1  UNL1       -0.3070
      3 C         143.8002  139.6889  164.0314 C.ar    1  UNL1        0.1786
      4 N         143.4434  139.3498  162.6143 N.ar    1  UNL1       -0.2226
      5 C         142.3960  138.2764  162.6443 C.ar    1  UNL1        0.1147
      6 C         142.1055  137.9521  164.0797 C.ar    1  UNL1        0.0739
      7 C         143.0082  138.8329  166.4366 C.3     1  UNL1        0.1340
      8 C         141.2585  142.2998  168.7100 C.ar    1  UNL1        0.0684
      9 C         141.1690  142.2627  167.2131 C.ar    1  UNL1        0.0100
     10 C         141.7523  141.1071  166.4553 C.ar    1  UNL1       -0.0017
     11 C         142.4250  139.9885  167.1944 C.ar    1  UNL1        0.0005
     12 C         142.5144  140.0256  168.6912 C.ar    1  UNL1       -0.0017
     13 C         141.9312  141.1813  169.4490 C.ar    1  UNL1        0.0100
     14 N         140.0920  144.6112  170.2256 N.1     1  UNL1       -0.1908
     15 C         140.6752  143.4555  169.4678 C.1     1  UNL1        0.1004
     16 N         139.7149  137.3456  164.8965 N.3     1  UNL1       -0.2863
     17 H         139.7400  137.7733  165.8222 H       1  UNL1        0.1240
     18 C         138.9864  138.3004  163.9979 C.3     1  UNL1        0.1337
     19 C         138.6424  138.0667  162.5567 C.3     1  UNL1        0.0466
     20 C         137.9173  139.2785  162.0509 C.3     1  UNL1        0.0957
     21 N         137.8132  140.2610  163.1795 N.am    1  UNL1       -0.2743
     22 C         138.4739  139.6566  164.3828 C.2     1  UNL1        0.2402
     23 O         138.6000  140.2960  165.7338 O.2     1  UNL1       -0.2734
     24 C         137.1626  141.6111  163.1159 C.3     1  UNL1        0.1202
     25 C         137.9971  142.8521  163.2322 C.ar    1  UNL1       -0.0023
     26 C         138.1432  143.5360  164.5593 C.ar    1  UNL1       -0.0026
     27 C         138.9777  144.7769  164.6755 C.ar    1  UNL1       -0.0003
     28 C         139.6661  145.3340  163.4648 C.ar    1  UNL1       -0.0000
     29 C         139.5200  144.6501  162.1379 C.ar    1  UNL1       -0.0003
     30 C         138.6855  143.4092  162.0216 C.ar    1  UNL1       -0.0026
@<TRIPOS>BOND
     1    14    15    3
     2    15     8    1
     3     8     9   ar
     4     9    10   ar
     5    10    11   ar
     6    11     7    1
     7     7     2    1
     8     2     3   ar
     9     3     4   ar
    10     4     5   ar
    11     5     6   ar
    12     6     1    1
    13     1    16    1
    14    18    16    1
    15    18    19    1
    16    19    20    1
    17    20    21    1
    18    21    24    1
    19    24    25    1
    20    25    26   ar
    21    26    27   ar
    22    27    28   ar
    23    28    29   ar
    24    29    30   ar
    25    21    22   am
    26    22    23    2
    27    11    12   ar
    28    12    13   ar
    29    13     8   ar
    30     6     2   ar
    31    22    18    1
    32    30    25   ar
    33    16    17    1
