@<TRIPOS>MOLECULE
*****
 39 42 0 0 0
SMALL
GASTEIGER

@<TRIPOS>ATOM
      1 C         143.7332  139.3449  164.4304 C.2     1  UNL1        0.2293
      2 O         145.1399  139.0069  164.8267 O.2     1  UNL1       -0.2745
      3 N         143.4780  140.1856  163.2146 N.am    1  UNL1       -0.2790
      4 C         144.6295  140.6883  162.3951 C.3     1  UNL1        0.0971
      5 C         144.3742  141.5290  161.1794 C.3     1  UNL1        0.0650
      6 C         142.9676  141.8670  160.7831 C.3     1  UNL1        0.1693
      7 C         141.8161  141.3643  161.6025 C.3     1  UNL1        0.0650
      8 C         142.0714  140.5236  162.8182 C.3     1  UNL1        0.0971
      9 C         141.8428  137.6073  164.8268 C.3     1  UNL1        0.0143
     10 C         142.5818  138.8422  165.2498 C.3     1  UNL1        0.0989
     11 C         142.1693  139.5745  166.4922 C.ar    1  UNL1       -0.0137
     12 C         141.0709  140.5942  166.4321 C.ar    1  UNL1       -0.0007
     13 C         140.6584  141.3264  167.6745 C.ar    1  UNL1        0.0369
     14 C         141.3443  141.0389  168.9771 C.ar    1  UNL1        0.1468
     15 C         142.4427  140.0191  169.0374 C.ar    1  UNL1        0.0369
     16 C         142.8553  139.2869  167.7949 C.ar    1  UNL1       -0.0007
     17 O         140.9318  141.7711  170.2196 O.3     1  UNL1       -0.4045
     18 C         140.6368  143.2407  170.1611 C.3     1  UNL1        0.5753
     19 F         140.3418  144.7103  170.1026 F       1  UNL1       -0.1328
     20 F         142.0633  143.5120  169.7851 F       1  UNL1       -0.1328
     21 F         139.2103  142.9693  170.5371 F       1  UNL1       -0.1328
     22 O         142.7124  142.7077  159.5673 O.3     1  UNL1       -0.4789
     23 C         141.4395  142.5384  158.7920 C.ar    1  UNL1        0.1427
     24 C         141.3158  141.4334  157.7852 C.ar    1  UNL1        0.0371
     25 C         140.0428  141.2641  157.0100 C.ar    1  UNL1        0.0047
     26 C         138.8936  142.1998  157.2416 C.ar    1  UNL1        0.0195
     27 C         139.0172  143.3048  158.2484 C.ar    1  UNL1        0.0091
     28 C         140.2901  143.4741  159.0236 C.ar    1  UNL1        0.0871
     29 C         137.6207  142.0305  156.4664 C.ar    1  UNL1        0.1002
     30 C         136.5742  140.9832  156.7075 C.ar    1  UNL1        0.0965
     31 N         135.4775  141.1842  155.7040 N.ar    1  UNL1       -0.3059
     32 C         134.2310  140.3586  155.5831 C.3     1  UNL1        0.1321
     33 C         135.8462  142.3557  154.8428 C.ar    1  UNL1        0.1786
     34 N         137.1707  142.8787  155.3139 N.ar    1  UNL1       -0.2239
     35 C         140.4138  144.5792  160.0304 C.2     1  UNL1        0.2457
     36 N         141.6146  145.4779  160.0138 N.am    1  UNL1       -0.3252
     37 O         139.3366  144.7854  161.0538 O.2     1  UNL1       -0.2703
     38 H         142.3215  145.3426  159.3422 H       1  UNL1        0.1453
     39 H         141.6957  146.2032  160.6746 H       1  UNL1        0.1453
@<TRIPOS>BOND
     1    10     9    1
     2    10     1    1
     3     1     2    2
     4     1     3   am
     5     3     4    1
     6     4     5    1
     7     5     6    1
     8     6    22    1
     9    22    23    1
    10    23    24   ar
    11    24    25   ar
    12    25    26   ar
    13    26    29    1
    14    29    30   ar
    15    30    31   ar
    16    31    32    1
    17    31    33   ar
    18    33    34   ar
    19    26    27   ar
    20    27    28   ar
    21    28    35    1
    22    35    36   am
    23    35    37    2
    24     6     7    1
    25     7     8    1
    26    10    11    1
    27    11    12   ar
    28    12    13   ar
    29    13    14   ar
    30    14    17    1
    31    17    18    1
    32    18    19    1
    33    18    20    1
    34    18    21    1
    35    14    15   ar
    36    15    16   ar
    37     8     3    1
    38    16    11   ar
    39    28    23   ar
    40    34    29   ar
    41    36    38    1
    42    36    39    1
@<TRIPOS>MOLECULE
*****
 39 42 0 0 0
SMALL
GASTEIGER

@<TRIPOS>ATOM
      1 C         138.5315  140.0160  165.0840 C.2     1  UNL1        0.2293
      2 O         137.6356  141.1570  164.7025 O.2     1  UNL1       -0.2745
      3 N         139.4198  139.3832  164.0541 N.am    1  UNL1       -0.2790
      4 C         139.4123  139.8914  162.6429 C.3     1  UNL1        0.0971
      5 C         140.3006  139.2586  161.6132 C.3     1  UNL1        0.0650
      6 C         141.1964  138.1176  161.9946 C.3     1  UNL1        0.1693
      7 C         141.2040  137.6094  163.4059 C.3     1  UNL1        0.0650
      8 C         140.3157  138.2422  164.4356 C.3     1  UNL1        0.0971
      9 C         137.6864  138.3331  166.8739 C.3     1  UNL1        0.0143
     10 C         138.5390  139.5078  166.4952 C.3     1  UNL1        0.0989
     11 C         139.3991  140.1741  167.5277 C.ar    1  UNL1       -0.0137
     12 C         140.4518  141.1562  167.1066 C.ar    1  UNL1       -0.0007
     13 C         141.3119  141.8226  168.1392 C.ar    1  UNL1        0.0369
     14 C         141.1193  141.5069  169.5929 C.ar    1  UNL1        0.1468
     15 C         140.0666  140.5247  170.0140 C.ar    1  UNL1        0.0369
     16 C         139.2065  139.8584  168.9815 C.ar    1  UNL1       -0.0007
     17 O         141.9794  142.1732  170.6254 O.3     1  UNL1       -0.4045
     18 C         143.4248  142.4483  170.3335 C.3     1  UNL1        0.5753
     19 F         144.8702  142.7233  170.0416 F       1  UNL1       -0.1328
     20 F         143.2286  143.8853  170.7162 F       1  UNL1       -0.1328
     21 F         143.6209  141.0113  169.9508 F       1  UNL1       -0.1328
     22 O         142.0848  137.4848  160.9648 O.3     1  UNL1       -0.4789
     23 C         142.5910  138.2971  159.8099 C.ar    1  UNL1        0.1427
     24 C         142.1420  137.9781  158.4147 C.ar    1  UNL1        0.0371
     25 C         142.6483  138.7905  157.2597 C.ar    1  UNL1        0.0047
     26 C         143.6035  139.9218  157.5001 C.ar    1  UNL1        0.0195
     27 C         144.0525  140.2407  158.8953 C.ar    1  UNL1        0.0091
     28 C         143.5463  139.4284  160.0502 C.ar    1  UNL1        0.0871
     29 C         144.1098  140.7341  156.3452 C.ar    1  UNL1        0.1002
     30 C         145.5056  141.2578  156.1803 C.ar    1  UNL1        0.0965
     31 N         145.5676  142.0127  154.8856 N.ar    1  UNL1       -0.3059
     32 C         146.7752  142.7036  154.3247 C.3     1  UNL1        0.1321
     33 C         144.2100  141.9555  154.2502 C.ar    1  UNL1        0.1786
     34 N         143.3090  141.1653  155.1523 N.ar    1  UNL1       -0.2239
     35 C         143.9952  139.7474  161.4454 C.2     1  UNL1        0.2457
     36 N         144.5964  138.6741  162.3037 N.am    1  UNL1       -0.3252
     37 O         143.8430  141.1397  161.9825 O.2     1  UNL1       -0.2703
     38 H         144.6963  137.7603  161.9512 H       1  UNL1        0.1453
     39 H         144.8911  138.8834  163.2194 H       1  UNL1        0.1453
@<TRIPOS>BOND
     1    10     9    1
     2    10     1    1
     3     1     2    2
     4     1     3   am
     5     3     4    1
     6     4     5    1
     7     5     6    1
     8     6    22    1
     9    22    23    1
    10    23    24   ar
    11    24    25   ar
    12    25    26   ar
    13    26    29    1
    14    29    30   ar
    15    30    31   ar
    16    31    32    1
    17    31    33   ar
    18    33    34   ar
    19    26    27   ar
    20    27    28   ar
    21    28    35    1
    22    35    36   am
    23    35    37    2
    24     6     7    1
    25     7     8    1
    26    10    11    1
    27    11    12   ar
    28    12    13   ar
    29    13    14   ar
    30    14    17    1
    31    17    18    1
    32    18    19    1
    33    18    20    1
    34    18    21    1
    35    14    15   ar
    36    15    16   ar
    37     8     3    1
    38    16    11   ar
    39    28    23   ar
    40    34    29   ar
    41    36    38    1
    42    36    39    1
@<TRIPOS>MOLECULE
*****
 39 42 0 0 0
SMALL
GASTEIGER

@<TRIPOS>ATOM
      1 C         140.8054  138.4591  158.5917 C.2     1  UNL1        0.2293
      2 O         139.3322  138.2773  158.8071 O.2     1  UNL1       -0.2745
      3 N         141.7157  138.6628  159.7665 N.am    1  UNL1       -0.2790
      4 C         141.1527  138.6846  161.1566 C.3     1  UNL1        0.0971
      5 C         142.0629  138.8883  162.3313 C.3     1  UNL1        0.0650
      6 C         143.5362  139.0702  162.1159 C.3     1  UNL1        0.1693
      7 C         144.0992  139.0484  160.7257 C.3     1  UNL1        0.0650
      8 C         143.1890  138.8447  159.5510 C.3     1  UNL1        0.0971
      9 C         141.5573  139.7209  156.4486 C.3     1  UNL1        0.0143
     10 C         141.3685  138.4374  157.2016 C.3     1  UNL1        0.0989
     11 C         141.7427  137.1320  156.5643 C.ar    1  UNL1       -0.0137
     12 C         142.8929  136.3357  157.1055 C.ar    1  UNL1       -0.0007
     13 C         143.2671  135.0304  156.4682 C.ar    1  UNL1        0.0369
     14 C         142.4911  134.5214  155.2898 C.ar    1  UNL1        0.1468
     15 C         141.3408  135.3177  154.7485 C.ar    1  UNL1        0.0369
     16 C         140.9666  136.6231  155.3858 C.ar    1  UNL1       -0.0007
     17 O         142.8653  133.2161  154.6525 O.3     1  UNL1       -0.4045
     18 C         142.7952  131.9460  155.4475 C.3     1  UNL1        0.5753
     19 F         142.7252  130.6759  156.2425 F       1  UNL1       -0.1328
     20 F         141.3732  132.2531  155.8127 F       1  UNL1       -0.1328
     21 F         144.2173  131.6390  155.0823 F       1  UNL1       -0.1328
     22 O         144.4464  139.2738  163.2906 O.3     1  UNL1       -0.4789
     23 C         143.9323  139.9434  164.5305 C.ar    1  UNL1        0.1427
     24 C         143.2751  139.1290  165.6051 C.ar    1  UNL1        0.0371
     25 C         142.7610  139.7986  166.8451 C.ar    1  UNL1        0.0047
     26 C         142.9042  141.2826  167.0104 C.ar    1  UNL1        0.0195
     27 C         143.5614  142.0969  165.9358 C.ar    1  UNL1        0.0091
     28 C         144.0755  141.4274  164.6959 C.ar    1  UNL1        0.0871
     29 C         142.3901  141.9521  168.2502 C.ar    1  UNL1        0.1002
     30 C         140.9561  142.0216  168.6848 C.ar    1  UNL1        0.0965
     31 N         140.8994  142.7821  169.9764 N.ar    1  UNL1       -0.3059
     32 C         139.6612  143.0884  170.7657 C.3     1  UNL1        0.1321
     33 C         142.2985  143.1828  170.3402 C.ar    1  UNL1        0.1786
     34 N         143.2197  142.6698  169.2733 N.ar    1  UNL1       -0.2239
     35 C         144.7328  142.2418  163.6213 C.2     1  UNL1        0.2457
     36 N         146.1218  141.9033  163.1674 N.am    1  UNL1       -0.3252
     37 O         144.0010  143.3947  163.0005 O.2     1  UNL1       -0.2703
     38 H         146.6021  141.1466  163.5748 H       1  UNL1        0.1453
     39 H         146.5532  142.4378  162.4621 H       1  UNL1        0.1453
@<TRIPOS>BOND
     1    10     9    1
     2    10     1    1
     3     1     2    2
     4     1     3   am
     5     3     4    1
     6     4     5    1
     7     5     6    1
     8     6    22    1
     9    22    23    1
    10    23    24   ar
    11    24    25   ar
    12    25    26   ar
    13    26    29    1
    14    29    30   ar
    15    30    31   ar
    16    31    32    1
    17    31    33   ar
    18    33    34   ar
    19    26    27   ar
    20    27    28   ar
    21    28    35    1
    22    35    36   am
    23    35    37    2
    24     6     7    1
    25     7     8    1
    26    10    11    1
    27    11    12   ar
    28    12    13   ar
    29    13    14   ar
    30    14    17    1
    31    17    18    1
    32    18    19    1
    33    18    20    1
    34    18    21    1
    35    14    15   ar
    36    15    16   ar
    37     8     3    1
    38    16    11   ar
    39    28    23   ar
    40    34    29   ar
    41    36    38    1
    42    36    39    1
@<TRIPOS>MOLECULE
*****
 39 42 0 0 0
SMALL
GASTEIGER

@<TRIPOS>ATOM
      1 C         138.9227  142.6190  163.3754 C.2     1  UNL1        0.2293
      2 O         137.4894  142.5051  162.9479 O.2     1  UNL1       -0.2745
      3 N         140.0170  142.1487  162.4635 N.am    1  UNL1       -0.2790
      4 C         139.6779  141.5644  161.1243 C.3     1  UNL1        0.0971
      5 C         140.7722  141.0941  160.2125 C.3     1  UNL1        0.0650
      6 C         142.2054  141.2081  160.6400 C.3     1  UNL1        0.1693
      7 C         142.5445  141.7923  161.9792 C.3     1  UNL1        0.0650
      8 C         141.4503  142.2626  162.8910 C.3     1  UNL1        0.0971
      9 C         139.2825  144.6917  164.9002 C.3     1  UNL1        0.0143
     10 C         139.2618  143.2033  164.7147 C.3     1  UNL1        0.0989
     11 C         139.5801  142.2992  165.8685 C.ar    1  UNL1       -0.0137
     12 C         139.1202  140.8716  165.8518 C.ar    1  UNL1       -0.0007
     13 C         139.4385  139.9675  167.0056 C.ar    1  UNL1        0.0369
     14 C         140.2168  140.4911  168.1761 C.ar    1  UNL1        0.1468
     15 C         140.6768  141.9188  168.1928 C.ar    1  UNL1        0.0369
     16 C         140.3585  142.8228  167.0390 C.ar    1  UNL1       -0.0007
     17 O         140.5352  139.5870  169.3300 O.3     1  UNL1       -0.4045
     18 C         141.8503  139.7124  170.0403 C.3     1  UNL1        0.5753
     19 F         143.1655  139.8378  170.7508 F       1  UNL1       -0.1328
     20 F         142.5232  138.9670  168.9261 F       1  UNL1       -0.1328
     21 F         141.1774  140.4577  171.1546 F       1  UNL1       -0.1328
     22 O         143.2997  140.7377  159.7281 O.3     1  UNL1       -0.4789
     23 C         143.1197  139.4836  158.9252 C.ar    1  UNL1        0.1427
     24 C         143.0271  139.5571  157.4299 C.ar    1  UNL1        0.0371
     25 C         142.8470  138.3029  156.6270 C.ar    1  UNL1        0.0047
     26 C         142.7596  136.9752  157.3194 C.ar    1  UNL1        0.0195
     27 C         142.8523  136.9016  158.8147 C.ar    1  UNL1        0.0091
     28 C         143.0323  138.1558  159.6176 C.ar    1  UNL1        0.0871
     29 C         142.5796  135.7211  156.5165 C.ar    1  UNL1        0.1002
     30 C         143.5226  134.5552  156.4791 C.ar    1  UNL1        0.0965
     31 N         142.9508  133.5261  155.5495 N.ar    1  UNL1       -0.3059
     32 C         143.5672  132.2000  155.2157 C.3     1  UNL1        0.1321
     33 C         141.6544  134.0561  155.0124 C.ar    1  UNL1        0.1786
     34 N         141.4250  135.4126  155.6100 N.ar    1  UNL1       -0.2239
     35 C         143.1249  138.0822  161.1130 C.2     1  UNL1        0.2457
     36 N         144.3948  138.4782  161.8061 N.am    1  UNL1       -0.3252
     37 O         141.9476  137.6126  161.9151 O.2     1  UNL1       -0.2703
     38 H         145.1675  138.7864  161.2796 H       1  UNL1        0.1453
     39 H         144.4556  138.4299  162.7876 H       1  UNL1        0.1453
@<TRIPOS>BOND
     1    10     9    1
     2    10     1    1
     3     1     2    2
     4     1     3   am
     5     3     4    1
     6     4     5    1
     7     5     6    1
     8     6    22    1
     9    22    23    1
    10    23    24   ar
    11    24    25   ar
    12    25    26   ar
    13    26    29    1
    14    29    30   ar
    15    30    31   ar
    16    31    32    1
    17    31    33   ar
    18    33    34   ar
    19    26    27   ar
    20    27    28   ar
    21    28    35    1
    22    35    36   am
    23    35    37    2
    24     6     7    1
    25     7     8    1
    26    10    11    1
    27    11    12   ar
    28    12    13   ar
    29    13    14   ar
    30    14    17    1
    31    17    18    1
    32    18    19    1
    33    18    20    1
    34    18    21    1
    35    14    15   ar
    36    15    16   ar
    37     8     3    1
    38    16    11   ar
    39    28    23   ar
    40    34    29   ar
    41    36    38    1
    42    36    39    1
@<TRIPOS>MOLECULE
*****
 39 42 0 0 0
SMALL
GASTEIGER

@<TRIPOS>ATOM
      1 C         142.2250  137.9164  164.7259 C.2     1  UNL1        0.2293
      2 O         141.1417  136.8795  164.7605 O.2     1  UNL1       -0.2745
      3 N         142.6942  138.4673  163.4119 N.am    1  UNL1       -0.2790
      4 C         142.0799  137.9813  162.1326 C.3     1  UNL1        0.0971
      5 C         142.5491  138.5323  160.8187 C.3     1  UNL1        0.0650
      6 C         143.6324  139.5692  160.7841 C.3     1  UNL1        0.1693
      7 C         144.2466  140.0551  162.0634 C.3     1  UNL1        0.0650
      8 C         143.7775  139.5042  163.3772 C.3     1  UNL1        0.0971
      9 C         144.2356  137.9931  166.3695 C.3     1  UNL1        0.0143
     10 C         142.8393  138.4023  166.0051 C.3     1  UNL1        0.0989
     11 C         142.0572  139.2975  166.9200 C.ar    1  UNL1       -0.0137
     12 C         142.5443  139.5538  168.3153 C.ar    1  UNL1       -0.0007
     13 C         141.7623  140.4490  169.2302 C.ar    1  UNL1        0.0369
     14 C         140.4931  141.0879  168.7497 C.ar    1  UNL1        0.1468
     15 C         140.0058  140.8316  167.3543 C.ar    1  UNL1        0.0369
     16 C         140.7879  139.9364  166.4395 C.ar    1  UNL1       -0.0007
     17 O         139.7110  141.9831  169.6646 O.3     1  UNL1       -0.4045
     18 C         140.1561  143.3975  169.8907 C.3     1  UNL1        0.5753
     19 F         140.6012  144.8121  170.1168 F       1  UNL1       -0.1328
     20 F         139.2944  143.4728  171.1162 F       1  UNL1       -0.1328
     21 F         141.0177  143.3223  168.6653 F       1  UNL1       -0.1328
     22 O         144.1015  140.1201  159.4701 O.3     1  UNL1       -0.4789
     23 C         143.3845  141.2793  158.8440 C.ar    1  UNL1        0.1427
     24 C         142.0603  141.7253  159.3894 C.ar    1  UNL1        0.0371
     25 C         141.3432  142.8845  158.7631 C.ar    1  UNL1        0.0047
     26 C         141.9504  143.5977  157.5915 C.ar    1  UNL1        0.0195
     27 C         143.2746  143.1517  157.0461 C.ar    1  UNL1        0.0091
     28 C         143.9917  141.9925  157.6723 C.ar    1  UNL1        0.0871
     29 C         141.2334  144.7568  156.9654 C.ar    1  UNL1        0.1002
     30 C         141.4576  145.2885  155.5808 C.ar    1  UNL1        0.0965
     31 N         140.5290  146.4481  155.3735 N.ar    1  UNL1       -0.3059
     32 C         140.4181  147.2771  154.1283 C.3     1  UNL1        0.1321
     33 C         139.7308  146.6332  156.6300 C.ar    1  UNL1        0.1786
     34 N         140.1662  145.5879  157.6138 N.ar    1  UNL1       -0.2239
     35 C         145.3159  141.5465  157.1269 C.2     1  UNL1        0.2457
     36 N         145.4814  140.1484  156.6093 N.am    1  UNL1       -0.3252
     37 O         146.4747  142.4986  157.0990 O.2     1  UNL1       -0.2703
     38 H         144.7209  139.5235  156.6276 H       1  UNL1        0.1453
     39 H         146.3505  139.8557  156.2514 H       1  UNL1        0.1453
@<TRIPOS>BOND
     1    10     9    1
     2    10     1    1
     3     1     2    2
     4     1     3   am
     5     3     4    1
     6     4     5    1
     7     5     6    1
     8     6    22    1
     9    22    23    1
    10    23    24   ar
    11    24    25   ar
    12    25    26   ar
    13    26    29    1
    14    29    30   ar
    15    30    31   ar
    16    31    32    1
    17    31    33   ar
    18    33    34   ar
    19    26    27   ar
    20    27    28   ar
    21    28    35    1
    22    35    36   am
    23    35    37    2
    24     6     7    1
    25     7     8    1
    26    10    11    1
    27    11    12   ar
    28    12    13   ar
    29    13    14   ar
    30    14    17    1
    31    17    18    1
    32    18    19    1
    33    18    20    1
    34    18    21    1
    35    14    15   ar
    36    15    16   ar
    37     8     3    1
    38    16    11   ar
    39    28    23   ar
    40    34    29   ar
    41    36    38    1
    42    36    39    1
@<TRIPOS>MOLECULE
*****
 39 42 0 0 0
SMALL
GASTEIGER

@<TRIPOS>ATOM
      1 C         139.7174  138.6479  164.3962 C.2     1  UNL1        0.2293
      2 O         138.7941  137.4720  164.5187 O.2     1  UNL1       -0.2745
      3 N         139.3965  139.7568  163.4383 N.am    1  UNL1       -0.2790
      4 C         138.1525  139.6898  162.6029 C.3     1  UNL1        0.0971
      5 C         137.8318  140.7986  161.6450 C.3     1  UNL1        0.0650
      6 C         138.7550  141.9745  161.5226 C.3     1  UNL1        0.1693
      7 C         139.9990  142.0415  162.3580 C.3     1  UNL1        0.0650
      8 C         140.3198  140.9326  163.3158 C.3     1  UNL1        0.0971
      9 C         142.1977  137.9859  164.7957 C.3     1  UNL1        0.0143
     10 C         140.9613  138.7149  165.2316 C.3     1  UNL1        0.0989
     11 C         140.9690  139.5110  166.5029 C.ar    1  UNL1       -0.0137
     12 C         139.6764  139.8448  167.1866 C.ar    1  UNL1       -0.0007
     13 C         139.6841  140.6409  168.4579 C.ar    1  UNL1        0.0369
     14 C         140.9844  141.1031  169.0455 C.ar    1  UNL1        0.1468
     15 C         142.2772  140.7693  168.3618 C.ar    1  UNL1        0.0369
     16 C         142.2695  139.9732  167.0905 C.ar    1  UNL1       -0.0007
     17 O         140.9921  141.8992  170.3169 O.3     1  UNL1       -0.4045
     18 C         140.6073  143.3488  170.2964 C.3     1  UNL1        0.5753
     19 F         140.2223  144.7984  170.2760 F       1  UNL1       -0.1328
     20 F         141.9930  143.7104  169.8504 F       1  UNL1       -0.1328
     21 F         139.2216  142.9871  170.7424 F       1  UNL1       -0.1328
     22 O         138.4342  143.0833  160.5646 O.3     1  UNL1       -0.4789
     23 C         139.2389  143.2463  159.3093 C.ar    1  UNL1        0.1427
     24 C         139.0083  142.3279  158.1460 C.ar    1  UNL1        0.0371
     25 C         139.8131  142.4909  156.8907 C.ar    1  UNL1        0.0047
     26 C         140.8484  143.5723  156.7987 C.ar    1  UNL1        0.0195
     27 C         141.0791  144.4908  157.9620 C.ar    1  UNL1        0.0091
     28 C         140.2743  144.3278  159.2173 C.ar    1  UNL1        0.0871
     29 C         141.6531  143.7353  155.5434 C.ar    1  UNL1        0.1002
     30 C         142.0937  145.0366  154.9413 C.ar    1  UNL1        0.0965
     31 N         142.8714  144.7311  153.6956 N.ar    1  UNL1       -0.3059
     32 C         143.4989  145.7388  152.7786 C.3     1  UNL1        0.1321
     33 C         142.9115  143.2410  153.5277 C.ar    1  UNL1        0.1786
     34 N         142.1586  142.6256  154.6698 N.ar    1  UNL1       -0.2239
     35 C         140.5050  145.2462  160.3806 C.2     1  UNL1        0.2457
     36 N         141.8209  145.2291  161.1003 N.am    1  UNL1       -0.3252
     37 O         139.4196  146.1818  160.8242 O.2     1  UNL1       -0.2703
     38 H         142.5333  144.6151  160.8091 H       1  UNL1        0.1453
     39 H         141.9723  145.8319  161.8638 H       1  UNL1        0.1453
@<TRIPOS>BOND
     1    10     9    1
     2    10     1    1
     3     1     2    2
     4     1     3   am
     5     3     4    1
     6     4     5    1
     7     5     6    1
     8     6    22    1
     9    22    23    1
    10    23    24   ar
    11    24    25   ar
    12    25    26   ar
    13    26    29    1
    14    29    30   ar
    15    30    31   ar
    16    31    32    1
    17    31    33   ar
    18    33    34   ar
    19    26    27   ar
    20    27    28   ar
    21    28    35    1
    22    35    36   am
    23    35    37    2
    24     6     7    1
    25     7     8    1
    26    10    11    1
    27    11    12   ar
    28    12    13   ar
    29    13    14   ar
    30    14    17    1
    31    17    18    1
    32    18    19    1
    33    18    20    1
    34    18    21    1
    35    14    15   ar
    36    15    16   ar
    37     8     3    1
    38    16    11   ar
    39    28    23   ar
    40    34    29   ar
    41    36    38    1
    42    36    39    1
@<TRIPOS>MOLECULE
*****
 39 42 0 0 0
SMALL
GASTEIGER

@<TRIPOS>ATOM
      1 C         139.2431  138.8830  165.1811 C.2     1  UNL1        0.2293
      2 O         140.0737  137.6830  164.8345 O.2     1  UNL1       -0.2745
      3 N         138.9168  139.8991  164.1269 N.am    1  UNL1       -0.2790
      4 C         139.4211  139.7152  162.7263 C.3     1  UNL1        0.0971
      5 C         139.0947  140.7313  161.6723 C.3     1  UNL1        0.0650
      6 C         138.2641  141.9313  162.0189 C.3     1  UNL1        0.1693
      7 C         137.7598  142.1152  163.4195 C.3     1  UNL1        0.0650
      8 C         138.0862  141.0991  164.4735 C.3     1  UNL1        0.0971
      9 C         137.4454  138.4342  167.0023 C.3     1  UNL1        0.0143
     10 C         138.7388  139.0669  166.5817 C.3     1  UNL1        0.0989
     11 C         139.5279  139.8836  167.5618 C.ar    1  UNL1       -0.0137
     12 C         139.1321  139.9075  169.0084 C.ar    1  UNL1       -0.0007
     13 C         139.9211  140.7241  169.9885 C.ar    1  UNL1        0.0369
     14 C         141.1059  141.5168  169.5219 C.ar    1  UNL1        0.1468
     15 C         141.5018  141.4929  168.0752 C.ar    1  UNL1        0.0369
     16 C         140.7128  140.6763  167.0952 C.ar    1  UNL1       -0.0007
     17 O         141.8950  142.3334  170.5020 O.3     1  UNL1       -0.4045
     18 C         143.3726  142.5094  170.3136 C.3     1  UNL1        0.5753
     19 F         144.8504  142.6855  170.1252 F       1  UNL1       -0.1328
     20 F         143.5021  141.0550  169.9703 F       1  UNL1       -0.1328
     21 F         143.2432  143.9638  170.6569 F       1  UNL1       -0.1328
     22 O         137.9378  142.9474  160.9647 O.3     1  UNL1       -0.4789
     23 C         138.8878  143.1799  159.8275 C.ar    1  UNL1        0.1427
     24 C         138.7235  142.4189  158.5454 C.ar    1  UNL1        0.0371
     25 C         139.6736  142.6515  157.4081 C.ar    1  UNL1        0.0047
     26 C         140.7880  143.6450  157.5530 C.ar    1  UNL1        0.0195
     27 C         140.9523  144.4060  158.8352 C.ar    1  UNL1        0.0091
     28 C         140.0023  144.1735  159.9724 C.ar    1  UNL1        0.0871
     29 C         141.7380  143.8775  156.4158 C.ar    1  UNL1        0.1002
     30 C         143.0300  143.1516  156.1838 C.ar    1  UNL1        0.0965
     31 N         143.6534  143.7022  154.9355 N.ar    1  UNL1       -0.3059
     32 C         144.9549  143.2635  154.3326 C.3     1  UNL1        0.1321
     33 C         142.7466  144.7684  154.3960 C.ar    1  UNL1        0.1786
     34 N         141.5629  144.8768  155.3109 N.ar    1  UNL1       -0.2239
     35 C         140.1667  144.9344  161.2545 C.2     1  UNL1        0.2457
     36 N         139.4877  146.2601  161.4322 N.am    1  UNL1       -0.3252
     37 O         141.0100  144.3697  162.3590 O.2     1  UNL1       -0.2703
     38 H         138.9341  146.6307  160.7073 H       1  UNL1        0.1453
     39 H         139.5955  146.7595  162.2737 H       1  UNL1        0.1453
@<TRIPOS>BOND
     1    10     9    1
     2    10     1    1
     3     1     2    2
     4     1     3   am
     5     3     4    1
     6     4     5    1
     7     5     6    1
     8     6    22    1
     9    22    23    1
    10    23    24   ar
    11    24    25   ar
    12    25    26   ar
    13    26    29    1
    14    29    30   ar
    15    30    31   ar
    16    31    32    1
    17    31    33   ar
    18    33    34   ar
    19    26    27   ar
    20    27    28   ar
    21    28    35    1
    22    35    36   am
    23    35    37    2
    24     6     7    1
    25     7     8    1
    26    10    11    1
    27    11    12   ar
    28    12    13   ar
    29    13    14   ar
    30    14    17    1
    31    17    18    1
    32    18    19    1
    33    18    20    1
    34    18    21    1
    35    14    15   ar
    36    15    16   ar
    37     8     3    1
    38    16    11   ar
    39    28    23   ar
    40    34    29   ar
    41    36    38    1
    42    36    39    1
@<TRIPOS>MOLECULE
*****
 39 42 0 0 0
SMALL
GASTEIGER

@<TRIPOS>ATOM
      1 C         142.6499  138.9558  157.8066 C.2     1  UNL1        0.2293
      2 O         144.0118  139.5538  158.0007 O.2     1  UNL1       -0.2745
      3 N         141.6394  139.0166  158.9136 N.am    1  UNL1       -0.2790
      4 C         141.9908  139.6754  160.2145 C.3     1  UNL1        0.0971
      5 C         140.9803  139.7361  161.3214 C.3     1  UNL1        0.0650
      6 C         139.6185  139.1381  161.1273 C.3     1  UNL1        0.1693
      7 C         139.2671  138.4793  159.8264 C.3     1  UNL1        0.0650
      8 C         140.2775  138.4185  158.7195 C.3     1  UNL1        0.0971
      9 C         141.6115  139.0829  155.4284 C.3     1  UNL1        0.0143
     10 C         142.2985  138.2970  156.5057 C.3     1  UNL1        0.0989
     11 C         142.6341  136.8522  156.2819 C.ar    1  UNL1       -0.0137
     12 C         142.5894  136.2777  154.8971 C.ar    1  UNL1       -0.0007
     13 C         142.9250  134.8329  154.6733 C.ar    1  UNL1        0.0369
     14 C         143.3052  133.9627  155.8344 C.ar    1  UNL1        0.1468
     15 C         143.3499  134.5372  157.2193 C.ar    1  UNL1        0.0369
     16 C         143.0143  135.9820  157.4431 C.ar    1  UNL1       -0.0007
     17 O         143.6407  132.5179  155.6106 O.3     1  UNL1       -0.4045
     18 C         144.1183  131.6730  156.7543 C.3     1  UNL1        0.5753
     19 F         144.5958  130.8281  157.8981 F       1  UNL1       -0.1328
     20 F         145.5390  132.0060  156.4071 F       1  UNL1       -0.1328
     21 F         142.6975  131.3401  157.1015 F       1  UNL1       -0.1328
     22 O         138.6079  139.1989  162.2342 O.3     1  UNL1       -0.4789
     23 C         139.0609  139.3574  163.6554 C.ar    1  UNL1        0.1427
     24 C         139.8384  138.2611  164.3215 C.ar    1  UNL1        0.0371
     25 C         140.2914  138.4197  165.7427 C.ar    1  UNL1        0.0047
     26 C         139.9669  139.6745  166.4977 C.ar    1  UNL1        0.0195
     27 C         139.1894  140.7708  165.8316 C.ar    1  UNL1        0.0091
     28 C         138.7364  140.6123  164.4105 C.ar    1  UNL1        0.0871
     29 C         140.4198  139.8330  167.9188 C.ar    1  UNL1        0.1002
     30 C         141.8401  139.9703  168.3814 C.ar    1  UNL1        0.0965
     31 N         141.8301  140.1042  169.8753 N.ar    1  UNL1       -0.3059
     32 C         143.0351  140.2645  170.7543 C.3     1  UNL1        0.1321
     33 C         140.4036  140.0497  170.3362 C.ar    1  UNL1        0.1786
     34 N         139.5321  139.8821  169.1269 N.ar    1  UNL1       -0.2239
     35 C         137.9589  141.7085  163.7444 C.2     1  UNL1        0.2457
     36 N         136.7668  141.3747  162.8974 N.am    1  UNL1       -0.3252
     37 O         138.3735  143.1388  163.9253 O.2     1  UNL1       -0.2703
     38 H         136.4947  140.4360  162.7787 H       1  UNL1        0.1453
     39 H         136.2565  142.0942  162.4602 H       1  UNL1        0.1453
@<TRIPOS>BOND
     1    10     9    1
     2    10     1    1
     3     1     2    2
     4     1     3   am
     5     3     4    1
     6     4     5    1
     7     5     6    1
     8     6    22    1
     9    22    23    1
    10    23    24   ar
    11    24    25   ar
    12    25    26   ar
    13    26    29    1
    14    29    30   ar
    15    30    31   ar
    16    31    32    1
    17    31    33   ar
    18    33    34   ar
    19    26    27   ar
    20    27    28   ar
    21    28    35    1
    22    35    36   am
    23    35    37    2
    24     6     7    1
    25     7     8    1
    26    10    11    1
    27    11    12   ar
    28    12    13   ar
    29    13    14   ar
    30    14    17    1
    31    17    18    1
    32    18    19    1
    33    18    20    1
    34    18    21    1
    35    14    15   ar
    36    15    16   ar
    37     8     3    1
    38    16    11   ar
    39    28    23   ar
    40    34    29   ar
    41    36    38    1
    42    36    39    1
@<TRIPOS>MOLECULE
*****
 39 42 0 0 0
SMALL
GASTEIGER

@<TRIPOS>ATOM
      1 C         142.7025  139.1334  157.3612 C.2     1  UNL1        0.2293
      2 O         144.1154  139.5623  157.6252 O.2     1  UNL1       -0.2745
      3 N         141.6244  139.4499  158.3550 N.am    1  UNL1       -0.2790
      4 C         141.9593  140.1953  159.6128 C.3     1  UNL1        0.0971
      5 C         140.8812  140.5118  160.6066 C.3     1  UNL1        0.0650
      6 C         139.4683  140.0828  160.3426 C.3     1  UNL1        0.1693
      7 C         139.1335  139.3373  159.0847 C.3     1  UNL1        0.0650
      8 C         140.2115  139.0209  158.0910 C.3     1  UNL1        0.0971
      9 C         141.7321  139.1082  154.9512 C.3     1  UNL1        0.0143
     10 C         142.3676  138.3879  156.1033 C.3     1  UNL1        0.0989
     11 C         142.6683  136.9222  155.9976 C.ar    1  UNL1       -0.0137
     12 C         143.0051  136.1349  157.2291 C.ar    1  UNL1       -0.0007
     13 C         143.3058  134.6691  157.1233 C.ar    1  UNL1        0.0369
     14 C         143.2697  133.9907  155.7860 C.ar    1  UNL1        0.1468
     15 C         142.9328  134.7780  154.5544 C.ar    1  UNL1        0.0369
     16 C         142.6322  136.2437  154.6602 C.ar    1  UNL1       -0.0007
     17 O         143.5703  132.5249  155.6803 O.3     1  UNL1       -0.4045
     18 C         144.0706  131.7736  156.8782 C.3     1  UNL1        0.5753
     19 F         144.5709  131.0222  158.0763 F       1  UNL1       -0.1328
     20 F         142.6601  131.4183  157.2444 F       1  UNL1       -0.1328
     21 F         145.4811  132.1289  156.5120 F       1  UNL1       -0.1328
     22 O         138.3903  140.3993  161.3364 O.3     1  UNL1       -0.4789
     23 C         138.7174  140.4783  162.7981 C.ar    1  UNL1        0.1427
     24 C         138.6509  141.7962  163.5114 C.ar    1  UNL1        0.0371
     25 C         138.9781  141.8751  164.9732 C.ar    1  UNL1        0.0047
     26 C         139.3718  140.6362  165.7217 C.ar    1  UNL1        0.0195
     27 C         139.4383  139.3184  165.0083 C.ar    1  UNL1        0.0091
     28 C         139.1111  139.2394  163.5466 C.ar    1  UNL1        0.0871
     29 C         139.6990  140.7152  167.1834 C.ar    1  UNL1        0.1002
     30 C         140.4388  141.8295  167.8623 C.ar    1  UNL1        0.0965
     31 N         140.5408  141.4968  169.3213 N.ar    1  UNL1       -0.3059
     32 C         141.2033  142.3366  170.3730 C.3     1  UNL1        0.1321
     33 C         139.8640  140.1768  169.5442 C.ar    1  UNL1        0.1786
     34 N         139.3438  139.6938  168.2228 N.ar    1  UNL1       -0.2239
     35 C         139.1776  137.9215  162.8333 C.2     1  UNL1        0.2457
     36 N         137.9769  137.4059  162.0969 N.am    1  UNL1       -0.3252
     37 O         140.4449  137.1193  162.8565 O.2     1  UNL1       -0.2703
     38 H         137.1452  137.9324  162.0817 H       1  UNL1        0.1453
     39 H         138.0206  136.5409  161.6287 H       1  UNL1        0.1453
@<TRIPOS>BOND
     1    10     9    1
     2    10     1    1
     3     1     2    2
     4     1     3   am
     5     3     4    1
     6     4     5    1
     7     5     6    1
     8     6    22    1
     9    22    23    1
    10    23    24   ar
    11    24    25   ar
    12    25    26   ar
    13    26    29    1
    14    29    30   ar
    15    30    31   ar
    16    31    32    1
    17    31    33   ar
    18    33    34   ar
    19    26    27   ar
    20    27    28   ar
    21    28    35    1
    22    35    36   am
    23    35    37    2
    24     6     7    1
    25     7     8    1
    26    10    11    1
    27    11    12   ar
    28    12    13   ar
    29    13    14   ar
    30    14    17    1
    31    17    18    1
    32    18    19    1
    33    18    20    1
    34    18    21    1
    35    14    15   ar
    36    15    16   ar
    37     8     3    1
    38    16    11   ar
    39    28    23   ar
    40    34    29   ar
    41    36    38    1
    42    36    39    1
