@<TRIPOS>MOLECULE
*****
 36 40 0 0 0
SMALL
GASTEIGER

@<TRIPOS>ATOM
      1 C         142.8555  138.5569  159.5030 C.ar    1  UNL1        0.1473
      2 C         143.7681  139.1983  160.5058 C.ar    1  UNL1        0.0390
      3 C         143.3014  139.4130  161.9151 C.ar    1  UNL1        0.0208
      4 C         141.9220  138.9863  162.3215 C.ar    1  UNL1        0.0683
      5 C         141.0094  138.3449  161.3186 C.ar    1  UNL1        0.0208
      6 C         139.7136  138.0303  162.0057 C.ar    1  UNL1        0.0207
      7 C         139.8254  138.4772  163.4332 C.ar    1  UNL1        0.0842
      8 N         141.1903  139.0681  163.6283 N.ar    1  UNL1       -0.2609
      9 C         141.7289  139.6402  164.9060 C.2     1  UNL1        0.3237
     10 O         143.1204  140.1988  164.9498 O.2     1  UNL1       -0.2489
     11 N         140.8760  139.6539  166.1400 N.am    1  UNL1       -0.2657
     12 C         141.4761  138.1302  159.9094 C.ar    1  UNL1        0.0390
     13 H         139.9628  139.2873  166.1112 H       1  UNL1        0.1566
     14 C         141.4147  140.2261  167.4177 C.ar    1  UNL1        0.0517
     15 C         142.3968  139.4410  168.2357 C.ar    1  UNL1        0.0147
     16 C         142.9354  140.0132  169.5134 C.ar    1  UNL1        0.0012
     17 C         142.4919  141.3704  169.9730 C.ar    1  UNL1        0.0039
     18 C         141.5098  142.1554  169.1550 C.ar    1  UNL1        0.0727
     19 C         140.9711  141.5833  167.8773 C.ar    1  UNL1        0.0186
     20 C         141.0662  143.5127  169.6146 C.3     1  UNL1        0.4186
     21 F         140.6227  144.8699  170.0742 F       1  UNL1       -0.1659
     22 F         142.2536  143.5914  170.5279 F       1  UNL1       -0.1659
     23 F         139.8790  143.4340  168.7013 F       1  UNL1       -0.1659
     24 O         143.3223  138.3422  158.0937 O.3     1  UNL1       -0.4363
     25 C         144.4057  133.0534  157.7697 C.3     1  UNL1        0.0175
     26 C         143.4278  133.9588  157.0812 C.3     1  UNL1        0.0589
     27 C         143.3926  135.4199  157.4187 C.3     1  UNL1        0.0481
     28 C         142.4147  136.3254  156.7303 C.ar    1  UNL1        0.0476
     29 C         141.4720  135.7697  155.7044 C.ar    1  UNL1        0.0772
     30 N         140.4941  136.6751  155.0159 N.ar    1  UNL1       -0.2271
     31 C         140.4590  138.1362  155.3534 C.ar    1  UNL1        0.2012
     32 N         141.4017  138.6920  156.3793 N.ar    1  UNL1       -0.1893
     33 C         142.3796  137.7865  157.0678 C.ar    1  UNL1        0.2282
     34 C         141.5072  134.3086  155.3669 C.3     1  UNL1        0.1150
     35 N         142.4851  133.4032  156.0553 N.3     1  UNL1       -0.2933
     36 H         143.0594  132.9809  155.3258 H       1  UNL1        0.1236
@<TRIPOS>BOND
     1    26    25    1
     2    26    27    1
     3    27    28    1
     4    28    29   ar
     5    29    30   ar
     6    30    31   ar
     7    31    32   ar
     8    32    33   ar
     9    33    24    1
    10    24     1    1
    11     1     2   ar
    12     2     3   ar
    13     3     4   ar
    14     4     5   ar
    15     5     6   ar
    16     6     7   ar
    17     7     8   ar
    18     8     9   am
    19     9    10    2
    20     9    11   am
    21    11    14    1
    22    14    15   ar
    23    15    16   ar
    24    16    17   ar
    25    17    18   ar
    26    18    20    1
    27    20    21    1
    28    20    22    1
    29    20    23    1
    30    18    19   ar
    31     5    12   ar
    32    29    34    1
    33    34    35    1
    34    35    26    1
    35    33    28   ar
    36    12     1   ar
    37     8     4   ar
    38    19    14   ar
    39    11    13    1
    40    35    36    1
@<TRIPOS>MOLECULE
*****
 36 40 0 0 0
SMALL
GASTEIGER

@<TRIPOS>ATOM
      1 C         142.7131  138.2398  158.8134 C.ar    1  UNL1        0.1473
      2 C         142.9104  137.6793  160.1907 C.ar    1  UNL1        0.0390
      3 C         142.3168  138.3791  161.3773 C.ar    1  UNL1        0.0208
      4 C         141.5261  139.6393  161.1866 C.ar    1  UNL1        0.0683
      5 C         141.3288  140.1998  159.8092 C.ar    1  UNL1        0.0208
      6 C         140.5077  141.4492  159.9305 C.ar    1  UNL1        0.0207
      7 C         140.1975  141.6610  161.3827 C.ar    1  UNL1        0.0842
      8 N         140.8268  140.5424  162.1590 N.ar    1  UNL1       -0.2609
      9 C         140.7675  140.3590  163.6465 C.2     1  UNL1        0.3237
     10 O         141.4489  139.1853  164.2853 O.2     1  UNL1       -0.2489
     11 N         140.0267  141.3495  164.4953 N.am    1  UNL1       -0.2657
     12 C         141.9223  139.5000  158.6227 C.ar    1  UNL1        0.0390
     13 H         139.5794  142.1198  164.0761 H       1  UNL1        0.1566
     14 C         139.9673  141.1661  165.9829 C.ar    1  UNL1        0.0517
     15 C         139.2169  140.0057  166.5662 C.ar    1  UNL1        0.0147
     16 C         139.1575  139.8223  168.0538 C.ar    1  UNL1        0.0012
     17 C         139.8486  140.7995  168.9580 C.ar    1  UNL1        0.0039
     18 C         140.5990  141.9599  168.3747 C.ar    1  UNL1        0.0727
     19 C         140.6583  142.1432  166.8871 C.ar    1  UNL1        0.0186
     20 C         141.2901  142.9371  169.2790 C.3     1  UNL1        0.4186
     21 F         141.9810  143.9142  170.1832 F       1  UNL1       -0.1659
     22 F         142.5669  142.1620  169.1407 F       1  UNL1       -0.1659
     23 F         140.0133  143.7120  169.4173 F       1  UNL1       -0.1659
     24 O         143.3067  137.5399  157.6268 O.3     1  UNL1       -0.4363
     25 C         145.0170  132.4197  157.9554 C.3     1  UNL1        0.0175
     26 C         143.9296  133.1054  157.1826 C.3     1  UNL1        0.0589
     27 C         143.7219  134.5836  157.3306 C.3     1  UNL1        0.0481
     28 C         142.6345  135.2693  156.5578 C.ar    1  UNL1        0.0476
     29 C         141.7547  134.4770  155.6369 C.ar    1  UNL1        0.0772
     30 N         140.6673  135.1627  154.8641 N.ar    1  UNL1       -0.2271
     31 C         140.4597  136.6409  155.0122 C.ar    1  UNL1        0.2012
     32 N         141.3395  137.4333  155.9331 N.ar    1  UNL1       -0.1893
     33 C         142.4269  136.7475  156.7059 C.ar    1  UNL1        0.2282
     34 C         141.9624  132.9988  155.4889 C.3     1  UNL1        0.1150
     35 N         143.0498  132.3131  156.2617 N.3     1  UNL1       -0.2933
     36 H         143.6629  131.8701  155.5774 H       1  UNL1        0.1236
@<TRIPOS>BOND
     1    26    25    1
     2    26    27    1
     3    27    28    1
     4    28    29   ar
     5    29    30   ar
     6    30    31   ar
     7    31    32   ar
     8    32    33   ar
     9    33    24    1
    10    24     1    1
    11     1     2   ar
    12     2     3   ar
    13     3     4   ar
    14     4     5   ar
    15     5     6   ar
    16     6     7   ar
    17     7     8   ar
    18     8     9   am
    19     9    10    2
    20     9    11   am
    21    11    14    1
    22    14    15   ar
    23    15    16   ar
    24    16    17   ar
    25    17    18   ar
    26    18    20    1
    27    20    21    1
    28    20    22    1
    29    20    23    1
    30    18    19   ar
    31     5    12   ar
    32    29    34    1
    33    34    35    1
    34    35    26    1
    35    33    28   ar
    36    12     1   ar
    37     8     4   ar
    38    19    14   ar
    39    11    13    1
    40    35    36    1
@<TRIPOS>MOLECULE
*****
 36 40 0 0 0
SMALL
GASTEIGER

@<TRIPOS>ATOM
      1 C         142.6138  138.4630  159.2338 C.ar    1  UNL1        0.1473
      2 C         143.4616  139.2097  160.2206 C.ar    1  UNL1        0.0390
      3 C         142.9163  139.5413  161.5781 C.ar    1  UNL1        0.0208
      4 C         141.5234  139.1262  161.9487 C.ar    1  UNL1        0.0683
      5 C         140.6757  138.3796  160.9618 C.ar    1  UNL1        0.0208
      6 C         139.3494  138.1030  161.6058 C.ar    1  UNL1        0.0207
      7 C         139.3775  138.6788  162.9906 C.ar    1  UNL1        0.0842
      8 N         140.7210  139.3112  163.2025 N.ar    1  UNL1       -0.2609
      9 C         141.1815  140.0064  164.4494 C.2     1  UNL1        0.3237
     10 O         142.5602  140.5935  164.5151 O.2     1  UNL1       -0.2489
     11 N         140.2631  140.1146  165.6305 N.am    1  UNL1       -0.2657
     12 C         141.2209  138.0479  159.6044 C.ar    1  UNL1        0.0390
     13 H         139.3582  139.7292  165.5874 H       1  UNL1        0.1566
     14 C         140.7236  140.8098  166.8774 C.ar    1  UNL1        0.0517
     15 C         140.3689  142.2488  167.1082 C.ar    1  UNL1        0.0147
     16 C         140.8293  142.9441  168.3551 C.ar    1  UNL1        0.0012
     17 C         141.6445  142.2002  169.3710 C.ar    1  UNL1        0.0039
     18 C         141.9992  140.7612  169.1401 C.ar    1  UNL1        0.0727
     19 C         141.5387  140.0659  167.8933 C.ar    1  UNL1        0.0186
     20 C         142.8144  140.0173  170.1562 C.3     1  UNL1        0.4186
     21 F         143.6295  139.2735  171.1721 F       1  UNL1       -0.1659
     22 F         143.7404  141.1916  170.2729 F       1  UNL1       -0.1659
     23 F         141.8884  138.8431  170.0394 F       1  UNL1       -0.1659
     24 O         143.1591  138.1314  157.8763 O.3     1  UNL1       -0.4363
     25 C         144.5370  132.9017  157.8306 C.3     1  UNL1        0.0175
     26 C         143.5317  133.7190  157.0747 C.3     1  UNL1        0.0589
     27 C         143.4075  135.1898  157.3419 C.3     1  UNL1        0.0481
     28 C         142.4022  136.0071  156.5860 C.ar    1  UNL1        0.0476
     29 C         141.5211  135.3537  155.5630 C.ar    1  UNL1        0.0772
     30 N         140.5158  136.1711  154.8071 N.ar    1  UNL1       -0.2271
     31 C         140.3917  137.6418  155.0742 C.ar    1  UNL1        0.2012
     32 N         141.2728  138.2953  156.0974 N.ar    1  UNL1       -0.1893
     33 C         142.2780  137.4780  156.8532 C.ar    1  UNL1        0.2282
     34 C         141.6453  133.8830  155.2958 C.3     1  UNL1        0.1150
     35 N         142.6506  133.0656  156.0517 N.3     1  UNL1       -0.2933
     36 H         143.2678  132.6431  155.3582 H       1  UNL1        0.1236
@<TRIPOS>BOND
     1    26    25    1
     2    26    27    1
     3    27    28    1
     4    28    29   ar
     5    29    30   ar
     6    30    31   ar
     7    31    32   ar
     8    32    33   ar
     9    33    24    1
    10    24     1    1
    11     1     2   ar
    12     2     3   ar
    13     3     4   ar
    14     4     5   ar
    15     5     6   ar
    16     6     7   ar
    17     7     8   ar
    18     8     9   am
    19     9    10    2
    20     9    11   am
    21    11    14    1
    22    14    15   ar
    23    15    16   ar
    24    16    17   ar
    25    17    18   ar
    26    18    20    1
    27    20    21    1
    28    20    22    1
    29    20    23    1
    30    18    19   ar
    31     5    12   ar
    32    29    34    1
    33    34    35    1
    34    35    26    1
    35    33    28   ar
    36    12     1   ar
    37     8     4   ar
    38    19    14   ar
    39    11    13    1
    40    35    36    1
@<TRIPOS>MOLECULE
*****
 36 40 0 0 0
SMALL
GASTEIGER

@<TRIPOS>ATOM
      1 C         140.6407  138.9503  159.9246 C.ar    1  UNL1        0.1473
      2 C         141.6052  139.8186  160.6767 C.ar    1  UNL1        0.0390
      3 C         141.5289  139.9035  162.1723 C.ar    1  UNL1        0.0208
      4 C         140.4881  139.1200  162.9158 C.ar    1  UNL1        0.0683
      5 C         139.5236  138.2516  162.1637 C.ar    1  UNL1        0.0208
      6 C         138.6122  137.5997  163.1608 C.ar    1  UNL1        0.0207
      7 C         139.0134  138.0650  164.5292 C.ar    1  UNL1        0.0842
      8 N         140.1728  139.0046  164.3777 N.ar    1  UNL1       -0.2609
      9 C         140.8908  139.7058  165.4925 C.2     1  UNL1        0.3237
     10 O         142.0391  140.6211  165.1864 O.2     1  UNL1       -0.2489
     11 N         140.4604  139.4918  166.9135 N.am    1  UNL1       -0.2657
     12 C         139.5999  138.1668  160.6681 C.ar    1  UNL1        0.0390
     13 H         139.7067  138.8911  167.1145 H       1  UNL1        0.1566
     14 C         141.1785  140.1930  168.0283 C.ar    1  UNL1        0.0517
     15 C         142.2978  139.5033  168.7503 C.ar    1  UNL1        0.0147
     16 C         143.0158  140.2045  169.8651 C.ar    1  UNL1        0.0012
     17 C         142.6144  141.5954  170.2578 C.ar    1  UNL1        0.0039
     18 C         141.4951  142.2851  169.5358 C.ar    1  UNL1        0.0727
     19 C         140.7770  141.5839  168.4210 C.ar    1  UNL1        0.0186
     20 C         141.0937  143.6761  169.9286 C.3     1  UNL1        0.4186
     21 F         140.6923  145.0670  170.3213 F       1  UNL1       -0.1659
     22 F         142.4275  143.8756  170.5852 F       1  UNL1       -0.1659
     23 F         139.7599  143.4766  169.2720 F       1  UNL1       -0.1659
     24 O         140.7170  138.8655  158.4288 O.3     1  UNL1       -0.4363
     25 C         143.7167  135.1118  155.9466 C.3     1  UNL1        0.0175
     26 C         143.7699  136.6094  156.0123 C.3     1  UNL1        0.0589
     27 C         142.7523  137.3614  156.8178 C.3     1  UNL1        0.0481
     28 C         142.8055  138.8590  156.8835 C.ar    1  UNL1        0.0476
     29 C         143.8763  139.6046  156.1437 C.ar    1  UNL1        0.0772
     30 N         143.9295  141.1023  156.2093 N.ar    1  UNL1       -0.2271
     31 C         142.9119  141.8543  157.0149 C.ar    1  UNL1        0.2012
     32 N         141.8410  141.1087  157.7547 N.ar    1  UNL1       -0.1893
     33 C         141.7878  139.6111  157.6890 C.ar    1  UNL1        0.2282
     34 C         144.8939  138.8526  155.3381 C.3     1  UNL1        0.1150
     35 N         144.8407  137.3550  155.2724 N.3     1  UNL1       -0.2933
     36 H         145.7348  137.0129  155.6247 H       1  UNL1        0.1236
@<TRIPOS>BOND
     1    26    25    1
     2    26    27    1
     3    27    28    1
     4    28    29   ar
     5    29    30   ar
     6    30    31   ar
     7    31    32   ar
     8    32    33   ar
     9    33    24    1
    10    24     1    1
    11     1     2   ar
    12     2     3   ar
    13     3     4   ar
    14     4     5   ar
    15     5     6   ar
    16     6     7   ar
    17     7     8   ar
    18     8     9   am
    19     9    10    2
    20     9    11   am
    21    11    14    1
    22    14    15   ar
    23    15    16   ar
    24    16    17   ar
    25    17    18   ar
    26    18    20    1
    27    20    21    1
    28    20    22    1
    29    20    23    1
    30    18    19   ar
    31     5    12   ar
    32    29    34    1
    33    34    35    1
    34    35    26    1
    35    33    28   ar
    36    12     1   ar
    37     8     4   ar
    38    19    14   ar
    39    11    13    1
    40    35    36    1
@<TRIPOS>MOLECULE
*****
 36 40 0 0 0
SMALL
GASTEIGER

@<TRIPOS>ATOM
      1 C         141.8523  144.0523  159.7958 C.ar    1  UNL1        0.1473
      2 C         141.0412  144.4808  160.9825 C.ar    1  UNL1        0.0390
      3 C         141.3684  143.9489  162.3463 C.ar    1  UNL1        0.0208
      4 C         142.5068  142.9884  162.5233 C.ar    1  UNL1        0.0683
      5 C         143.3180  142.5599  161.3365 C.ar    1  UNL1        0.0208
      6 C         144.3735  141.6080  161.8159 C.ar    1  UNL1        0.0207
      7 C         144.2147  141.4481  163.2989 C.ar    1  UNL1        0.0842
      8 N         143.0610  142.3013  163.7360 N.ar    1  UNL1       -0.2609
      9 C         142.5510  142.4426  165.1396 C.2     1  UNL1        0.3237
     10 O         141.3819  143.3376  165.4262 O.2     1  UNL1       -0.2489
     11 N         143.2101  141.6888  166.2565 N.am    1  UNL1       -0.2657
     12 C         142.9908  143.0919  159.9728 C.ar    1  UNL1        0.0390
     13 H         143.9774  141.1013  166.0684 H       1  UNL1        0.1566
     14 C         142.7001  141.8300  167.6601 C.ar    1  UNL1        0.0517
     15 C         143.5523  142.4870  168.7052 C.ar    1  UNL1        0.0147
     16 C         143.0423  142.6283  170.1087 C.ar    1  UNL1        0.0012
     17 C         141.6801  142.1126  170.4671 C.ar    1  UNL1        0.0039
     18 C         140.8279  141.4556  169.4220 C.ar    1  UNL1        0.0727
     19 C         141.3379  141.3143  168.0185 C.ar    1  UNL1        0.0186
     20 C         139.4657  140.9399  169.7805 C.3     1  UNL1        0.4186
     21 F         138.1035  140.4242  170.1389 F       1  UNL1       -0.1659
     22 F         139.1242  142.2666  170.3913 F       1  UNL1       -0.1659
     23 F         139.8073  139.6132  169.1697 F       1  UNL1       -0.1659
     24 O         141.5250  144.5844  158.4320 O.3     1  UNL1       -0.4363
     25 C         139.0512  148.4730  155.6020 C.3     1  UNL1        0.0175
     26 C         138.9004  146.9823  155.6731 C.3     1  UNL1        0.0589
     27 C         139.7753  146.1830  156.5927 C.3     1  UNL1        0.0481
     28 C         139.6245  144.6923  156.6638 C.ar    1  UNL1        0.0476
     29 C         138.5988  144.0009  155.8153 C.ar    1  UNL1        0.0772
     30 N         138.4481  142.5102  155.8864 N.ar    1  UNL1       -0.2271
     31 C         139.3229  141.7109  156.8060 C.ar    1  UNL1        0.2012
     32 N         140.3486  142.4023  157.6546 N.ar    1  UNL1       -0.1893
     33 C         140.4994  143.8930  157.5835 C.ar    1  UNL1        0.2282
     34 C         137.7240  144.8002  154.8957 C.3     1  UNL1        0.1150
     35 N         137.8748  146.2909  154.8246 N.3     1  UNL1       -0.2933
     36 H         136.9697  146.6905  155.0725 H       1  UNL1        0.1236
@<TRIPOS>BOND
     1    26    25    1
     2    26    27    1
     3    27    28    1
     4    28    29   ar
     5    29    30   ar
     6    30    31   ar
     7    31    32   ar
     8    32    33   ar
     9    33    24    1
    10    24     1    1
    11     1     2   ar
    12     2     3   ar
    13     3     4   ar
    14     4     5   ar
    15     5     6   ar
    16     6     7   ar
    17     7     8   ar
    18     8     9   am
    19     9    10    2
    20     9    11   am
    21    11    14    1
    22    14    15   ar
    23    15    16   ar
    24    16    17   ar
    25    17    18   ar
    26    18    20    1
    27    20    21    1
    28    20    22    1
    29    20    23    1
    30    18    19   ar
    31     5    12   ar
    32    29    34    1
    33    34    35    1
    34    35    26    1
    35    33    28   ar
    36    12     1   ar
    37     8     4   ar
    38    19    14   ar
    39    11    13    1
    40    35    36    1
@<TRIPOS>MOLECULE
*****
 36 40 0 0 0
SMALL
GASTEIGER

@<TRIPOS>ATOM
      1 C         137.9431  140.0444  160.2031 C.ar    1  UNL1        0.1473
      2 C         138.1896  141.3123  160.9657 C.ar    1  UNL1        0.0390
      3 C         138.8494  141.2618  162.3118 C.ar    1  UNL1        0.0208
      4 C         139.2627  139.9432  162.8953 C.ar    1  UNL1        0.0683
      5 C         139.0162  138.6753  162.1328 C.ar    1  UNL1        0.0208
      6 C         139.5292  137.5316  162.9568 C.ar    1  UNL1        0.0207
      7 C         140.0928  138.0928  164.2286 C.ar    1  UNL1        0.0842
      8 N         139.9281  139.5832  164.1906 N.ar    1  UNL1       -0.2609
      9 C         140.3540  140.5449  165.2601 C.2     1  UNL1        0.3237
     10 O         140.1226  142.0161  165.0813 O.2     1  UNL1       -0.2489
     11 N         141.0113  140.0353  166.5085 N.am    1  UNL1       -0.2657
     12 C         138.3564  138.7258  160.7867 C.ar    1  UNL1        0.0390
     13 H         141.1631  139.0697  166.6259 H       1  UNL1        0.1566
     14 C         141.4371  140.9969  167.5780 C.ar    1  UNL1        0.0517
     15 C         142.8864  141.3507  167.7348 C.ar    1  UNL1        0.0147
     16 C         143.3123  142.3123  168.8043 C.ar    1  UNL1        0.0012
     17 C         142.2888  142.9202  169.7170 C.ar    1  UNL1        0.0039
     18 C         140.8396  142.5665  169.5602 C.ar    1  UNL1        0.0727
     19 C         140.4137  141.6048  168.4907 C.ar    1  UNL1        0.0186
     20 C         139.8162  143.1744  170.4730 C.3     1  UNL1        0.4186
     21 F         138.7929  143.7824  171.3858 F       1  UNL1       -0.1659
     22 F         139.1843  141.8272  170.6619 F       1  UNL1       -0.1659
     23 F         140.4481  144.5216  170.2841 F       1  UNL1       -0.1659
     24 O         137.2833  140.0950  158.8569 O.3     1  UNL1       -0.4363
     25 C         133.4942  141.0733  155.1239 C.3     1  UNL1        0.0175
     26 C         134.9757  141.2995  155.1862 C.3     1  UNL1        0.0589
     27 C         135.7449  140.8980  156.4097 C.3     1  UNL1        0.0481
     28 C         137.2264  141.1242  156.4720 C.ar    1  UNL1        0.0476
     29 C         137.9388  141.7519  155.3108 C.ar    1  UNL1        0.0772
     30 N         139.4203  141.9781  155.3731 N.ar    1  UNL1       -0.2271
     31 C         140.1895  141.5766  156.5966 C.ar    1  UNL1        0.2012
     32 N         139.4772  140.9489  157.7580 N.ar    1  UNL1       -0.1893
     33 C         137.9956  140.7227  157.6957 C.ar    1  UNL1        0.2282
     34 C         137.1696  142.1533  154.0872 C.3     1  UNL1        0.1150
     35 N         135.6880  141.9271  154.0249 N.3     1  UNL1       -0.2933
     36 H         135.5150  141.3304  153.2160 H       1  UNL1        0.1236
@<TRIPOS>BOND
     1    26    25    1
     2    26    27    1
     3    27    28    1
     4    28    29   ar
     5    29    30   ar
     6    30    31   ar
     7    31    32   ar
     8    32    33   ar
     9    33    24    1
    10    24     1    1
    11     1     2   ar
    12     2     3   ar
    13     3     4   ar
    14     4     5   ar
    15     5     6   ar
    16     6     7   ar
    17     7     8   ar
    18     8     9   am
    19     9    10    2
    20     9    11   am
    21    11    14    1
    22    14    15   ar
    23    15    16   ar
    24    16    17   ar
    25    17    18   ar
    26    18    20    1
    27    20    21    1
    28    20    22    1
    29    20    23    1
    30    18    19   ar
    31     5    12   ar
    32    29    34    1
    33    34    35    1
    34    35    26    1
    35    33    28   ar
    36    12     1   ar
    37     8     4   ar
    38    19    14   ar
    39    11    13    1
    40    35    36    1
@<TRIPOS>MOLECULE
*****
 36 40 0 0 0
SMALL
GASTEIGER

@<TRIPOS>ATOM
      1 C         143.3450  142.6050  160.0110 C.ar    1  UNL1        0.1473
      2 C         142.7376  141.3009  160.4358 C.ar    1  UNL1        0.0390
      3 C         142.7813  140.1178  159.5148 C.ar    1  UNL1        0.0208
      4 C         143.4324  140.2388  158.1690 C.ar    1  UNL1        0.0683
      5 C         144.0398  141.5429  157.7441 C.ar    1  UNL1        0.0208
      6 C         144.6090  141.3626  156.3681 C.ar    1  UNL1        0.0207
      7 C         144.3534  139.9471  155.9424 C.ar    1  UNL1        0.0842
      8 N         143.6262  139.2526  157.0555 N.ar    1  UNL1       -0.2609
      9 C         143.1725  137.8229  157.0551 C.2     1  UNL1        0.3237
     10 O         142.4527  137.2641  158.2466 O.2     1  UNL1       -0.2489
     11 N         143.4386  136.9518  155.8632 N.am    1  UNL1       -0.2657
     12 C         143.9961  142.7260  158.6651 C.ar    1  UNL1        0.0390
     13 H         143.9110  137.3185  155.0811 H       1  UNL1        0.1566
     14 C         142.9848  135.5221  155.8628 C.ar    1  UNL1        0.0517
     15 C         141.7862  135.1158  155.0577 C.ar    1  UNL1        0.0147
     16 C         141.3325  133.6861  155.0573 C.ar    1  UNL1        0.0012
     17 C         142.0774  132.6627  155.8621 C.ar    1  UNL1        0.0039
     18 C         143.2760  133.0690  156.6672 C.ar    1  UNL1        0.0727
     19 C         143.7298  134.4987  156.6676 C.ar    1  UNL1        0.0186
     20 C         144.0210  132.0455  157.4721 C.3     1  UNL1        0.4186
     21 F         144.7659  131.0221  158.2769 F       1  UNL1       -0.1659
     22 F         142.9361  131.0449  157.2037 F       1  UNL1       -0.1659
     23 F         145.1057  133.0461  157.7404 F       1  UNL1       -0.1659
     24 O         143.3013  143.7881  160.9321 O.3     1  UNL1       -0.4363
     25 C         142.0500  142.3770  166.0009 C.3     1  UNL1        0.0175
     26 C         141.3807  143.2282  164.9629 C.3     1  UNL1        0.0589
     27 C         142.0209  143.4149  163.6193 C.3     1  UNL1        0.0481
     28 C         141.3515  144.2661  162.5814 C.ar    1  UNL1        0.0476
     29 C         140.0420  144.9307  162.8870 C.ar    1  UNL1        0.0772
     30 N         139.3726  145.7819  161.8490 N.ar    1  UNL1       -0.2271
     31 C         140.0128  145.9685  160.5054 C.ar    1  UNL1        0.2012
     32 N         141.3224  145.3039  160.1997 N.ar    1  UNL1       -0.1893
     33 C         141.9917  144.4527  161.2377 C.ar    1  UNL1        0.2282
     34 C         139.4018  144.7440  164.2306 C.3     1  UNL1        0.1150
     35 N         140.0712  143.8928  165.2685 N.3     1  UNL1       -0.2933
     36 H         139.4138  143.1511  165.5097 H       1  UNL1        0.1236
@<TRIPOS>BOND
     1    26    25    1
     2    26    27    1
     3    27    28    1
     4    28    29   ar
     5    29    30   ar
     6    30    31   ar
     7    31    32   ar
     8    32    33   ar
     9    33    24    1
    10    24     1    1
    11     1     2   ar
    12     2     3   ar
    13     3     4   ar
    14     4     5   ar
    15     5     6   ar
    16     6     7   ar
    17     7     8   ar
    18     8     9   am
    19     9    10    2
    20     9    11   am
    21    11    14    1
    22    14    15   ar
    23    15    16   ar
    24    16    17   ar
    25    17    18   ar
    26    18    20    1
    27    20    21    1
    28    20    22    1
    29    20    23    1
    30    18    19   ar
    31     5    12   ar
    32    29    34    1
    33    34    35    1
    34    35    26    1
    35    33    28   ar
    36    12     1   ar
    37     8     4   ar
    38    19    14   ar
    39    11    13    1
    40    35    36    1
@<TRIPOS>MOLECULE
*****
 36 40 0 0 0
SMALL
GASTEIGER

@<TRIPOS>ATOM
      1 C         143.2625  138.3711  160.1374 C.ar    1  UNL1        0.1473
      2 C         142.4136  137.7913  161.2297 C.ar    1  UNL1        0.0390
      3 C         142.4221  138.4115  162.5954 C.ar    1  UNL1        0.0208
      4 C         143.2795  139.6115  162.8688 C.ar    1  UNL1        0.0683
      5 C         144.1284  140.1913  161.7765 C.ar    1  UNL1        0.0208
      6 C         144.8663  141.3699  162.3390 C.ar    1  UNL1        0.0207
      7 C         144.4734  141.5186  163.7790 C.ar    1  UNL1        0.0842
      8 N         143.4927  140.4318  164.1064 N.ar    1  UNL1       -0.2609
      9 C         142.8398  140.2051  165.4377 C.2     1  UNL1        0.3237
     10 O         141.8744  139.0711  165.6162 O.2     1  UNL1       -0.2489
     11 N         143.1524  141.1126  166.5906 N.am    1  UNL1       -0.2657
     12 C         144.1199  139.5711  160.4107 C.ar    1  UNL1        0.0390
     13 H         143.7860  141.8569  166.4734 H       1  UNL1        0.1566
     14 C         142.4995  140.8859  167.9219 C.ar    1  UNL1        0.0517
     15 C         142.7121  139.5923  168.6509 C.ar    1  UNL1        0.0147
     16 C         142.0592  139.3657  169.9822 C.ar    1  UNL1        0.0012
     17 C         141.1937  140.4326  170.5844 C.ar    1  UNL1        0.0039
     18 C         140.9811  141.7261  169.8553 C.ar    1  UNL1        0.0727
     19 C         141.6340  141.9528  168.5240 C.ar    1  UNL1        0.0186
     20 C         140.1156  142.7930  170.4576 C.3     1  UNL1        0.4186
     21 F         139.2501  143.8599  171.0599 F       1  UNL1       -0.1659
     22 F         139.9691  143.4349  169.1098 F       1  UNL1       -0.1659
     23 F         140.2622  142.1511  171.8053 F       1  UNL1       -0.1659
     24 O         143.2539  137.7508  158.7716 O.3     1  UNL1       -0.4363
     25 C         143.2615  133.4960  155.4330 C.3     1  UNL1        0.0175
     26 C         142.3651  134.6873  155.5974 C.3     1  UNL1        0.0589
     27 C         142.6614  135.7085  156.6555 C.3     1  UNL1        0.0481
     28 C         141.7650  136.8999  156.8199 C.ar    1  UNL1        0.0476
     29 C         140.5723  137.0701  155.9263 C.ar    1  UNL1        0.0772
     30 N         139.6759  138.2615  156.0908 N.ar    1  UNL1       -0.2271
     31 C         139.9722  139.2827  157.1488 C.ar    1  UNL1        0.2012
     32 N         141.1649  139.1124  158.0424 N.ar    1  UNL1       -0.1893
     33 C         142.0613  137.9211  157.8780 C.ar    1  UNL1        0.2282
     34 C         140.2761  136.0490  154.8683 C.3     1  UNL1        0.1150
     35 N         141.1725  134.8576  154.7039 N.3     1  UNL1       -0.2933
     36 H         141.5232  134.8829  153.7464 H       1  UNL1        0.1236
@<TRIPOS>BOND
     1    26    25    1
     2    26    27    1
     3    27    28    1
     4    28    29   ar
     5    29    30   ar
     6    30    31   ar
     7    31    32   ar
     8    32    33   ar
     9    33    24    1
    10    24     1    1
    11     1     2   ar
    12     2     3   ar
    13     3     4   ar
    14     4     5   ar
    15     5     6   ar
    16     6     7   ar
    17     7     8   ar
    18     8     9   am
    19     9    10    2
    20     9    11   am
    21    11    14    1
    22    14    15   ar
    23    15    16   ar
    24    16    17   ar
    25    17    18   ar
    26    18    20    1
    27    20    21    1
    28    20    22    1
    29    20    23    1
    30    18    19   ar
    31     5    12   ar
    32    29    34    1
    33    34    35    1
    34    35    26    1
    35    33    28   ar
    36    12     1   ar
    37     8     4   ar
    38    19    14   ar
    39    11    13    1
    40    35    36    1
@<TRIPOS>MOLECULE
*****
 36 40 0 0 0
SMALL
GASTEIGER

@<TRIPOS>ATOM
      1 C         140.3373  142.8551  159.6313 C.ar    1  UNL1        0.1473
      2 C         141.5788  142.5237  160.4052 C.ar    1  UNL1        0.0390
      3 C         141.4971  142.2695  161.8812 C.ar    1  UNL1        0.0208
      4 C         140.1738  142.3467  162.5833 C.ar    1  UNL1        0.0683
      5 C         138.9324  142.6781  161.8094 C.ar    1  UNL1        0.0208
      6 C         137.7772  142.6833  162.7664 C.ar    1  UNL1        0.0207
      7 C         138.3048  142.3551  164.1316 C.ar    1  UNL1        0.0842
      8 N         139.7860  142.1470  164.0185 N.ar    1  UNL1       -0.2609
      9 C         140.7160  141.8002  165.1431 C.2     1  UNL1        0.3237
     10 O         142.1814  141.6223  164.8767 O.2     1  UNL1       -0.2489
     11 N         140.1807  141.6313  166.5342 N.am    1  UNL1       -0.2657
     12 C         139.0141  142.9323  160.3334 C.ar    1  UNL1        0.0390
     13 H         139.2189  141.7481  166.7090 H       1  UNL1        0.1566
     14 C         141.1108  141.2845  167.6588 C.ar    1  UNL1        0.0517
     15 C         141.3950  139.8474  167.9808 C.ar    1  UNL1        0.0147
     16 C         142.3251  139.5006  169.1054 C.ar    1  UNL1        0.0012
     17 C         142.9708  140.5910  169.9079 C.ar    1  UNL1        0.0039
     18 C         142.6866  142.0281  169.5858 C.ar    1  UNL1        0.0727
     19 C         141.7565  142.3749  168.4612 C.ar    1  UNL1        0.0186
     20 C         143.3324  143.1186  170.3883 C.3     1  UNL1        0.4186
     21 F         143.9782  144.2090  171.1908 F       1  UNL1       -0.1659
     22 F         144.6539  142.4177  170.2771 F       1  UNL1       -0.1659
     23 F         142.0109  143.8194  170.4995 F       1  UNL1       -0.1659
     24 O         140.4191  143.1094  158.1552 O.3     1  UNL1       -0.4363
     25 C         138.9807  147.4184  155.2205 C.3     1  UNL1        0.0175
     26 C         138.5114  145.9948  155.2769 C.3     1  UNL1        0.0589
     27 C         139.1473  145.0330  156.2363 C.3     1  UNL1        0.0481
     28 C         138.6780  143.6094  156.2928 C.ar    1  UNL1        0.0476
     29 C         137.5729  143.1476  155.3898 C.ar    1  UNL1        0.0772
     30 N         137.1037  141.7240  155.4463 N.ar    1  UNL1       -0.2271
     31 C         137.7395  140.7622  156.4057 C.ar    1  UNL1        0.2012
     32 N         138.8448  141.2240  157.3087 N.ar    1  UNL1       -0.1893
     33 C         139.3140  142.6476  157.2523 C.ar    1  UNL1        0.2282
     34 C         136.9370  144.1095  154.4304 C.3     1  UNL1        0.1150
     35 N         137.4063  145.5330  154.3740 N.3     1  UNL1       -0.2933
     36 H         136.5960  146.1184  154.5771 H       1  UNL1        0.1236
@<TRIPOS>BOND
     1    26    25    1
     2    26    27    1
     3    27    28    1
     4    28    29   ar
     5    29    30   ar
     6    30    31   ar
     7    31    32   ar
     8    32    33   ar
     9    33    24    1
    10    24     1    1
    11     1     2   ar
    12     2     3   ar
    13     3     4   ar
    14     4     5   ar
    15     5     6   ar
    16     6     7   ar
    17     7     8   ar
    18     8     9   am
    19     9    10    2
    20     9    11   am
    21    11    14    1
    22    14    15   ar
    23    15    16   ar
    24    16    17   ar
    25    17    18   ar
    26    18    20    1
    27    20    21    1
    28    20    22    1
    29    20    23    1
    30    18    19   ar
    31     5    12   ar
    32    29    34    1
    33    34    35    1
    34    35    26    1
    35    33    28   ar
    36    12     1   ar
    37     8     4   ar
    38    19    14   ar
    39    11    13    1
    40    35    36    1
