@<TRIPOS>MOLECULE
*****
 56 58 0 0 0
SMALL
GASTEIGER

@<TRIPOS>ATOM
      1 C         142.0176  139.6278  164.5399 C.3     1  UNL1        0.1953
      2 O         142.6679  138.9570  163.3664 O.3     1  UNL1       -0.4497
      3 C         143.0828  138.8523  161.9288 C.2     1  UNL1        0.3188
      4 O         143.7964  137.5336  161.8825 O.2     1  UNL1       -0.2500
      5 C         143.1802  139.3343  160.5117 C.3     1  UNL1        0.1263
      6 C         143.8570  138.2077  160.2035 C.3     1  UNL1        0.0142
      7 C         142.9408  140.3078  159.3959 C.3     1  UNL1        0.1306
      8 C         142.4118  141.5799  158.8023 C.3     1  UNL1        0.0575
      9 C         142.8268  141.4751  157.3646 C.3     1  UNL1        0.0051
     10 C         141.6983  142.8984  158.8486 C.3     1  UNL1        0.1444
     11 C         140.9414  144.0025  159.5255 C.3     1  UNL1        0.1137
     12 C         141.1501  144.2940  158.0690 C.3     1  UNL1        0.0318
     13 O         140.3370  145.3195  159.1382 O.3     1  UNL1       -0.3844
     14 C         140.2911  144.6733  160.6990 C.3     1  UNL1        0.0366
     15 C         139.8762  144.7780  162.1366 C.3     1  UNL1        0.0601
     16 C         139.1626  146.0966  162.1829 C.3     1  UNL1        0.0078
     17 C         139.7788  144.2959  163.5538 C.2     1  UNL1        0.1523
     18 O         139.0219  145.4000  164.2307 O.2     1  UNL1       -0.2960
     19 C         140.0183  143.3225  164.6696 C.3     1  UNL1        0.0869
     20 C         139.3680  143.9933  165.8431 C.3     1  UNL1        0.0104
     21 C         140.5472  142.0504  165.2631 C.3     1  UNL1        0.1451
     22 O         140.1322  142.1552  166.7008 O.3     1  UNL1       -0.3815
     23 C         141.2607  140.7318  165.2169 C.3     1  UNL1        0.1497
     24 C         140.7555  141.0334  166.5966 C.3     1  UNL1        0.0356
     25 O         141.6051  139.6336  166.1787 O.3     1  UNL1       -0.3808
     26 H         140.4880  145.4792  158.1934 H       1  UNL1        0.2103
     27 H         139.6543  142.9878  166.8395 H       1  UNL1        0.2105
     28 H         141.2660  139.8572  167.0596 H       1  UNL1        0.2105
     29 C         143.6588  138.3280  166.0784 C.3     1  UNL1        0.0039
     30 C         142.2571  138.6543  165.6558 C.3     1  UNL1        0.0462
     31 O         143.5911  139.6370  158.2223 O.3     1  UNL1       -0.3323
     32 C         142.8571  138.5683  157.4679 C.3     1  UNL1        0.2375
     33 C         141.3572  138.5570  157.4521 C.3     1  UNL1        0.0910
     34 C         140.6232  137.4883  156.6977 C.3     1  UNL1        0.1246
     35 C         139.4860  136.6906  156.1315 C.3     1  UNL1        0.0324
     36 C         141.3891  136.4309  155.9591 C.3     1  UNL1        0.1623
     37 O         140.6550  135.3623  155.2047 O.3     1  UNL1       -0.3796
     38 C         142.8890  136.4423  155.9750 C.3     1  UNL1        0.1468
     39 C         143.6548  135.3849  155.2364 C.3     1  UNL1        0.0348
     40 O         143.6229  137.5109  156.7293 O.3     1  UNL1       -0.3304
     41 H         139.6993  135.5002  155.2966 H       1  UNL1        0.2105
     42 O         139.4624  138.2686  157.2396 O.3     1  UNL1       -0.3532
     43 C         139.4641  138.7192  158.6703 C.3     1  UNL1        0.1740
     44 O         141.7957  143.3805  157.4315 O.3     1  UNL1       -0.3287
     45 C         140.5635  143.8376  156.7085 C.3     1  UNL1        0.2643
     46 O         140.3590  145.2959  156.4229 O.3     1  UNL1       -0.3311
     47 C         139.1268  145.7529  155.6998 C.3     1  UNL1        0.1194
     48 C         138.9223  147.2113  155.4143 C.3     1  UNL1        0.0322
     49 C         138.0991  144.7517  155.2624 C.3     1  UNL1        0.0482
     50 C         138.3036  143.2934  155.5479 C.3     1  UNL1        0.0921
     51 C         139.5357  142.8363  156.2710 C.3     1  UNL1        0.1815
     52 O         139.7403  141.3780  156.5566 O.3     1  UNL1       -0.3783
     53 H         140.5799  141.2553  157.0267 H       1  UNL1        0.2106
     54 N         137.2759  142.2922  155.1104 N.3     1  UNL1       -0.2692
     55 C         137.1919  141.8844  153.6694 C.3     1  UNL1        0.0897
     56 C         136.3321  141.6989  156.1140 C.3     1  UNL1        0.0897
@<TRIPOS>BOND
     1    29    30    1
     2    30     1    1
     3     1     2    1
     4     2     3    1
     5     3     4    2
     6     3     5    1
     7     5     6    1
     8     5     7    1
     9     7    31    1
    10    31    32    1
    11    32    33    1
    12    33    34    1
    13    34    35    1
    14    34    42    1
    15    42    43    1
    16    34    36    1
    17    36    37    1
    18    36    38    1
    19    38    39    1
    20    38    40    1
    21     7     8    1
    22     8     9    1
    23     8    10    1
    24    10    44    1
    25    44    45    1
    26    45    46    1
    27    46    47    1
    28    47    48    1
    29    47    49    1
    30    49    50    1
    31    50    54    1
    32    54    55    1
    33    54    56    1
    34    50    51    1
    35    51    52    1
    36    10    11    1
    37    11    12    1
    38    11    13    1
    39    11    14    1
    40    14    15    1
    41    15    16    1
    42    15    17    1
    43    17    18    2
    44    17    19    1
    45    19    20    1
    46    19    21    1
    47    21    22    1
    48    21    23    1
    49    23    24    1
    50    23    25    1
    51    23     1    1
    52    40    32    1
    53    51    45    1
    54    37    41    1
    55    52    53    1
    56    13    26    1
    57    22    27    1
    58    25    28    1
@<TRIPOS>MOLECULE
*****
 56 58 0 0 0
SMALL
GASTEIGER

@<TRIPOS>ATOM
      1 C         140.8097  144.4055  162.1285 C.3     1  UNL1        0.1953
      2 O         141.3028  144.6075  160.7264 O.3     1  UNL1       -0.4497
      3 C         141.8551  144.1501  159.4090 C.2     1  UNL1        0.3188
      4 O         141.9678  145.4284  158.6322 O.2     1  UNL1       -0.2500
      5 C         142.3572  143.1237  158.4371 C.3     1  UNL1        0.1263
      6 C         142.5553  144.1112  157.5382 C.3     1  UNL1        0.0142
      7 C         142.7097  141.7317  158.0034 C.3     1  UNL1        0.1306
      8 C         142.8428  140.2497  158.1937 C.3     1  UNL1        0.0575
      9 C         143.3951  139.7923  156.8762 C.3     1  UNL1        0.0051
     10 C         142.7300  138.9714  158.9704 C.3     1  UNL1        0.1444
     11 C         142.3938  138.1499  160.1795 C.3     1  UNL1        0.1137
     12 C         142.9247  137.2955  159.0668 C.3     1  UNL1        0.0318
     13 O         142.4455  136.7041  160.5756 O.3     1  UNL1       -0.3844
     14 C         141.9008  137.9479  161.5817 C.3     1  UNL1        0.0366
     15 C         141.3485  138.4053  162.8991 C.3     1  UNL1        0.0601
     16 C         141.2357  137.1270  163.6758 C.3     1  UNL1        0.0078
     17 C         140.8463  139.4317  163.8710 C.2     1  UNL1        0.1523
     18 O         140.5101  138.6101  165.0801 O.2     1  UNL1       -0.2960
     19 C         140.4938  140.8237  164.3047 C.3     1  UNL1        0.0869
     20 C         140.0008  140.6217  165.7068 C.3     1  UNL1        0.0104
     21 C         140.3608  142.3057  164.1143 C.3     1  UNL1        0.1451
     22 O         139.8085  142.7631  165.4318 O.3     1  UNL1       -0.3815
     23 C         140.4735  143.5840  163.3377 C.3     1  UNL1        0.1497
     24 C         139.9290  143.8253  164.7143 C.3     1  UNL1        0.0356
     25 O         140.1884  145.0386  163.5669 O.3     1  UNL1       -0.3808
     26 H         142.7919  136.1788  159.8374 H       1  UNL1        0.2103
     27 H         139.6958  141.9986  166.0181 H       1  UNL1        0.2105
     28 H         139.8385  145.1622  164.4631 H       1  UNL1        0.2105
     29 C         139.5694  146.6485  161.7034 C.3     1  UNL1        0.0039
     30 C         140.4572  145.7975  162.5622 C.3     1  UNL1        0.0462
     31 O         143.2028  141.9337  156.6012 O.3     1  UNL1       -0.3323
     32 C         144.6740  142.0516  156.3333 C.3     1  UNL1        0.2375
     33 C         145.2340  141.6073  155.0145 C.3     1  UNL1        0.0910
     34 C         146.7052  141.7251  154.7465 C.3     1  UNL1        0.1246
     35 C         148.0183  141.6371  154.0268 C.3     1  UNL1        0.0324
     36 C         147.6163  142.2872  155.7973 C.3     1  UNL1        0.1623
     37 O         149.0874  142.4050  155.5292 O.3     1  UNL1       -0.3796
     38 C         147.0562  142.7314  157.1160 C.3     1  UNL1        0.1468
     39 C         147.9673  143.2934  158.1667 C.3     1  UNL1        0.0348
     40 O         145.5851  142.6136  157.3840 O.3     1  UNL1       -0.3304
     41 H         149.2809  142.0761  154.6374 H       1  UNL1        0.2105
     42 O         146.2501  141.1325  153.4458 O.3     1  UNL1       -0.3532
     43 C         145.3543  139.9295  153.4425 C.3     1  UNL1        0.1740
     44 O         143.2321  137.9451  157.9986 O.3     1  UNL1       -0.3287
     45 C         142.2697  137.2362  157.0923 C.3     1  UNL1        0.2643
     46 O         140.9484  137.8650  156.7623 O.3     1  UNL1       -0.3311
     47 C         139.9861  137.1561  155.8561 C.3     1  UNL1        0.1194
     48 C         138.6647  137.7849  155.5261 C.3     1  UNL1        0.0322
     49 C         140.3449  135.8186  155.2798 C.3     1  UNL1        0.0482
     50 C         141.6662  135.1899  155.6097 C.3     1  UNL1        0.0921
     51 C         142.6286  135.8986  156.5160 C.3     1  UNL1        0.1815
     52 O         143.9499  135.2700  156.8460 O.3     1  UNL1       -0.3783
     53 H         144.4472  135.8548  157.4390 H       1  UNL1        0.2106
     54 N         142.0251  133.8523  155.0334 N.3     1  UNL1       -0.2692
     55 C         142.1640  132.6606  155.9336 C.3     1  UNL1        0.0897
     56 C         142.2450  133.7065  153.5568 C.3     1  UNL1        0.0897
@<TRIPOS>BOND
     1    29    30    1
     2    30     1    1
     3     1     2    1
     4     2     3    1
     5     3     4    2
     6     3     5    1
     7     5     6    1
     8     5     7    1
     9     7    31    1
    10    31    32    1
    11    32    33    1
    12    33    34    1
    13    34    35    1
    14    34    42    1
    15    42    43    1
    16    34    36    1
    17    36    37    1
    18    36    38    1
    19    38    39    1
    20    38    40    1
    21     7     8    1
    22     8     9    1
    23     8    10    1
    24    10    44    1
    25    44    45    1
    26    45    46    1
    27    46    47    1
    28    47    48    1
    29    47    49    1
    30    49    50    1
    31    50    54    1
    32    54    55    1
    33    54    56    1
    34    50    51    1
    35    51    52    1
    36    10    11    1
    37    11    12    1
    38    11    13    1
    39    11    14    1
    40    14    15    1
    41    15    16    1
    42    15    17    1
    43    17    18    2
    44    17    19    1
    45    19    20    1
    46    19    21    1
    47    21    22    1
    48    21    23    1
    49    23    24    1
    50    23    25    1
    51    23     1    1
    52    40    32    1
    53    51    45    1
    54    37    41    1
    55    52    53    1
    56    13    26    1
    57    22    27    1
    58    25    28    1
@<TRIPOS>MOLECULE
*****
 56 58 0 0 0
SMALL
GASTEIGER

@<TRIPOS>ATOM
      1 C         138.9909  139.2134  165.7791 C.3     1  UNL1        0.1953
      2 O         138.7255  138.6580  164.4112 O.3     1  UNL1       -0.4497
      3 C         139.0099  138.4696  162.9505 C.2     1  UNL1        0.3188
      4 O         137.9011  137.5609  162.5090 O.2     1  UNL1       -0.2500
      5 C         139.7877  138.6857  161.6862 C.3     1  UNL1        0.1263
      6 C         138.9101  137.8875  161.0420 C.3     1  UNL1        0.0142
      7 C         140.9049  139.2633  160.8688 C.3     1  UNL1        0.1306
      8 C         142.1403  140.0883  160.6602 C.3     1  UNL1        0.0575
      9 C         142.4246  139.8999  159.1995 C.3     1  UNL1        0.0051
     10 C         143.2491  140.9969  161.1017 C.3     1  UNL1        0.1444
     11 C         144.0117  141.8095  162.1058 C.3     1  UNL1        0.1137
     12 C         144.6377  141.8915  160.7452 C.3     1  UNL1        0.0318
     13 O         145.2318  142.6820  162.1157 O.3     1  UNL1       -0.3844
     14 C         144.2771  142.3649  163.4736 C.3     1  UNL1        0.0366
     15 C         143.9927  142.5532  164.9343 C.3     1  UNL1        0.0601
     16 C         145.1015  143.4620  165.3758 C.3     1  UNL1        0.0078
     17 C         143.2149  142.3372  166.1986 C.2     1  UNL1        0.1523
     18 O         143.9775  143.1497  167.2027 O.2     1  UNL1       -0.2960
     19 C         142.0977  141.7595  167.0160 C.3     1  UNL1        0.0869
     20 C         142.3631  142.3150  168.3839 C.3     1  UNL1        0.0104
     21 C         140.8623  140.9346  167.2246 C.3     1  UNL1        0.1451
     22 O         140.5780  141.1230  168.6853 O.3     1  UNL1       -0.3815
     23 C         139.7535  140.0259  166.7832 C.3     1  UNL1        0.1497
     24 C         139.6515  140.3447  168.2453 C.3     1  UNL1        0.0356
     25 O         138.5702  139.3502  167.4100 O.3     1  UNL1       -0.3808
     26 H         145.6129  142.7150  161.2244 H       1  UNL1        0.2103
     27 H         141.2496  141.7056  169.0729 H       1  UNL1        0.2105
     28 H         138.5315  139.5749  168.3528 H       1  UNL1        0.2105
     29 C         137.6499  137.1527  166.6188 C.3     1  UNL1        0.0039
     30 C         137.8737  138.6357  166.5965 C.3     1  UNL1        0.0462
     31 O         140.6395  138.7079  159.5010 O.3     1  UNL1       -0.3323
     32 C         139.7745  139.4663  158.5385 C.3     1  UNL1        0.2375
     33 C         139.3100  140.8515  158.8786 C.3     1  UNL1        0.0910
     34 C         138.4450  141.6100  157.9161 C.3     1  UNL1        0.1246
     35 C         137.6195  142.7200  157.3361 C.3     1  UNL1        0.0324
     36 C         138.0444  140.9833  156.6135 C.3     1  UNL1        0.1623
     37 O         137.1793  141.7418  155.6510 O.3     1  UNL1       -0.3796
     38 C         138.5089  139.5982  156.2734 C.3     1  UNL1        0.1468
     39 C         138.1082  138.9716  154.9707 C.3     1  UNL1        0.0348
     40 O         139.3739  138.8397  157.2358 O.3     1  UNL1       -0.3304
     41 H         136.9704  142.6135  156.0219 H       1  UNL1        0.2105
     42 O         138.5589  142.6221  159.0173 O.3     1  UNL1       -0.3532
     43 C         138.4186  142.1931  160.4477 C.3     1  UNL1        0.1740
     44 O         144.0269  141.2130  159.8375 O.3     1  UNL1       -0.3287
     45 C         143.5480  142.2089  158.8232 C.3     1  UNL1        0.2643
     46 O         142.6687  143.3478  159.2474 O.3     1  UNL1       -0.3311
     47 C         142.1899  144.3437  158.2330 C.3     1  UNL1        0.1194
     48 C         141.3106  145.4826  158.6573 C.3     1  UNL1        0.0322
     49 C         142.5902  144.2008  156.7946 C.3     1  UNL1        0.0482
     50 C         143.4694  143.0619  156.3704 C.3     1  UNL1        0.0921
     51 C         143.9483  142.0660  157.3846 C.3     1  UNL1        0.1815
     52 O         144.8276  140.9271  156.9605 O.3     1  UNL1       -0.3783
     53 H         145.0447  140.3814  157.7324 H       1  UNL1        0.2106
     54 N         143.8698  142.9190  154.9318 N.3     1  UNL1       -0.2692
     55 C         142.9144  142.3186  153.9436 C.3     1  UNL1        0.0897
     56 C         145.2255  143.3765  154.4816 C.3     1  UNL1        0.0897
@<TRIPOS>BOND
     1    29    30    1
     2    30     1    1
     3     1     2    1
     4     2     3    1
     5     3     4    2
     6     3     5    1
     7     5     6    1
     8     5     7    1
     9     7    31    1
    10    31    32    1
    11    32    33    1
    12    33    34    1
    13    34    35    1
    14    34    42    1
    15    42    43    1
    16    34    36    1
    17    36    37    1
    18    36    38    1
    19    38    39    1
    20    38    40    1
    21     7     8    1
    22     8     9    1
    23     8    10    1
    24    10    44    1
    25    44    45    1
    26    45    46    1
    27    46    47    1
    28    47    48    1
    29    47    49    1
    30    49    50    1
    31    50    54    1
    32    54    55    1
    33    54    56    1
    34    50    51    1
    35    51    52    1
    36    10    11    1
    37    11    12    1
    38    11    13    1
    39    11    14    1
    40    14    15    1
    41    15    16    1
    42    15    17    1
    43    17    18    2
    44    17    19    1
    45    19    20    1
    46    19    21    1
    47    21    22    1
    48    21    23    1
    49    23    24    1
    50    23    25    1
    51    23     1    1
    52    40    32    1
    53    51    45    1
    54    37    41    1
    55    52    53    1
    56    13    26    1
    57    22    27    1
    58    25    28    1
@<TRIPOS>MOLECULE
*****
 56 58 0 0 0
SMALL
GASTEIGER

@<TRIPOS>ATOM
      1 C         138.2819  139.8881  153.9831 C.3     1  UNL1        0.1953
      2 O         137.8824  141.3338  154.0011 O.3     1  UNL1       -0.4497
      3 C         137.9272  142.7420  154.5159 C.2     1  UNL1        0.3188
      4 O         136.9487  143.4530  153.6288 O.2     1  UNL1       -0.2500
      5 C         138.4076  143.8338  155.4255 C.3     1  UNL1        0.1263
      6 C         137.5944  144.6945  154.7771 C.3     1  UNL1        0.0142
      7 C         139.2283  144.3929  156.5497 C.3     1  UNL1        0.1306
      8 C         140.2268  144.3086  157.6659 C.3     1  UNL1        0.0575
      9 C         140.2717  145.7168  158.1807 C.3     1  UNL1        0.0051
     10 C         141.2054  143.5976  158.5530 C.3     1  UNL1        0.1444
     11 C         141.9701  142.4007  159.0353 C.3     1  UNL1        0.1137
     12 C         142.3118  143.6261  159.8300 C.3     1  UNL1        0.0318
     13 O         142.9846  142.0992  160.0982 O.3     1  UNL1       -0.3844
     14 C         142.3697  140.9550  159.0172 C.3     1  UNL1        0.0366
     15 C         142.3248  139.5469  158.5025 C.3     1  UNL1        0.0601
     16 C         143.3034  138.8358  159.3896 C.3     1  UNL1        0.0078
     17 C         141.8445  138.4550  157.5929 C.2     1  UNL1        0.1523
     18 O         142.6092  137.2582  158.0752 O.2     1  UNL1       -0.2960
     19 C         141.0237  137.8959  156.4687 C.3     1  UNL1        0.0869
     20 C         141.4233  136.4502  156.4506 C.3     1  UNL1        0.0104
     21 C         140.0252  137.9803  155.3525 C.3     1  UNL1        0.1451
     22 O         139.9804  136.5720  154.8377 O.3     1  UNL1       -0.3815
     23 C         139.0467  138.6912  154.4654 C.3     1  UNL1        0.1497
     24 C         139.1534  137.2380  154.1095 C.3     1  UNL1        0.0356
     25 O         138.1461  138.3404  153.3183 O.3     1  UNL1       -0.3808
     26 H         143.1844  142.9089  160.5935 H       1  UNL1        0.2103
     27 H         140.5889  136.0199  155.3532 H       1  UNL1        0.2105
     28 H         138.2374  137.3969  153.1124 H       1  UNL1        0.2105
     29 C         136.0841  139.8633  152.5977 C.3     1  UNL1        0.0039
     30 C         137.4612  139.3290  152.8589 C.3     1  UNL1        0.0462
     31 O         138.8288  145.8386  156.5677 O.3     1  UNL1       -0.3323
     32 C         139.3770  146.7811  155.5376 C.3     1  UNL1        0.2375
     33 C         138.9100  148.2061  155.5008 C.3     1  UNL1        0.0910
     34 C         139.4582  149.1486  154.4706 C.3     1  UNL1        0.1246
     35 C         139.6807  150.4109  153.6915 C.3     1  UNL1        0.0324
     36 C         140.4734  148.6660  153.4773 C.3     1  UNL1        0.1623
     37 O         141.0215  149.6086  152.4472 O.3     1  UNL1       -0.3796
     38 C         140.9403  147.2410  153.5141 C.3     1  UNL1        0.1468
     39 C         141.9554  146.7586  152.5208 C.3     1  UNL1        0.0348
     40 O         140.3921  146.2986  154.5442 O.3     1  UNL1       -0.3304
     41 H         140.6180  150.4832  152.5619 H       1  UNL1        0.2105
     42 O         138.5204  150.0695  155.1934 O.3     1  UNL1       -0.3532
     43 C         138.4769  150.0700  156.6927 C.3     1  UNL1        0.1740
     44 O         141.6857  144.6893  159.4625 O.3     1  UNL1       -0.3287
     45 C         141.6468  144.4979  160.9498 C.3     1  UNL1        0.2643
     46 O         142.9138  144.5730  161.7490 O.3     1  UNL1       -0.3311
     47 C         142.8748  144.3816  163.2362 C.3     1  UNL1        0.1194
     48 C         144.1420  144.4567  164.0356 C.3     1  UNL1        0.0322
     49 C         141.5689  144.1150  163.9242 C.3     1  UNL1        0.0482
     50 C         140.3018  144.0398  163.1249 C.3     1  UNL1        0.0921
     51 C         140.3407  144.2313  161.6377 C.3     1  UNL1        0.1815
     52 O         139.0736  144.1562  160.8384 O.3     1  UNL1       -0.3783
     53 H         139.2740  144.3012  159.9004 H       1  UNL1        0.2106
     54 N         138.9958  143.7733  163.8129 N.3     1  UNL1       -0.2692
     55 C         138.2318  142.5181  163.5115 C.3     1  UNL1        0.0897
     56 C         138.4538  144.7619  164.8023 C.3     1  UNL1        0.0897
@<TRIPOS>BOND
     1    29    30    1
     2    30     1    1
     3     1     2    1
     4     2     3    1
     5     3     4    2
     6     3     5    1
     7     5     6    1
     8     5     7    1
     9     7    31    1
    10    31    32    1
    11    32    33    1
    12    33    34    1
    13    34    35    1
    14    34    42    1
    15    42    43    1
    16    34    36    1
    17    36    37    1
    18    36    38    1
    19    38    39    1
    20    38    40    1
    21     7     8    1
    22     8     9    1
    23     8    10    1
    24    10    44    1
    25    44    45    1
    26    45    46    1
    27    46    47    1
    28    47    48    1
    29    47    49    1
    30    49    50    1
    31    50    54    1
    32    54    55    1
    33    54    56    1
    34    50    51    1
    35    51    52    1
    36    10    11    1
    37    11    12    1
    38    11    13    1
    39    11    14    1
    40    14    15    1
    41    15    16    1
    42    15    17    1
    43    17    18    2
    44    17    19    1
    45    19    20    1
    46    19    21    1
    47    21    22    1
    48    21    23    1
    49    23    24    1
    50    23    25    1
    51    23     1    1
    52    40    32    1
    53    51    45    1
    54    37    41    1
    55    52    53    1
    56    13    26    1
    57    22    27    1
    58    25    28    1
@<TRIPOS>MOLECULE
*****
 56 58 0 0 0
SMALL
GASTEIGER

@<TRIPOS>ATOM
      1 C         140.9876  138.3242  156.0960 C.3     1  UNL1        0.1953
      2 O         141.7278  139.2220  157.0426 O.3     1  UNL1       -0.4497
      3 C         142.0504  140.5401  157.6816 C.2     1  UNL1        0.3188
      4 O         143.1323  140.1823  158.6571 O.2     1  UNL1       -0.2500
      5 C         141.8915  142.0176  157.8866 C.3     1  UNL1        0.1263
      6 C         142.8603  141.9641  158.8253 C.3     1  UNL1        0.0142
      7 C         141.2826  143.3616  157.6169 C.3     1  UNL1        0.1306
      8 C         140.3442  144.3061  156.9259 C.3     1  UNL1        0.0575
      9 C         140.6668  145.6243  157.5650 C.3     1  UNL1        0.0051
     10 C         139.2623  144.6640  155.9505 C.3     1  UNL1        0.1444
     11 C         138.2511  144.3643  154.8839 C.3     1  UNL1        0.1137
     12 C         138.2540  145.8207  155.2427 C.3     1  UNL1        0.0318
     13 O         137.2420  145.1288  154.0794 O.3     1  UNL1       -0.3844
     14 C         137.5109  143.4665  153.9373 C.3     1  UNL1        0.0366
     15 C         137.1883  142.1484  153.2982 C.3     1  UNL1        0.0601
     16 C         136.1064  142.5062  152.3228 C.3     1  UNL1        0.0078
     17 C         137.3472  140.6709  153.0932 C.2     1  UNL1        0.1523
     18 O         136.3360  140.3713  152.0266 O.2     1  UNL1       -0.2960
     19 C         137.9561  139.3269  153.3629 C.3     1  UNL1        0.0869
     20 C         137.2159  138.4290  152.4164 C.3     1  UNL1        0.0104
     21 C         138.8945  138.3824  154.0540 C.3     1  UNL1        0.1451
     22 O         138.5719  137.0642  153.4149 O.3     1  UNL1       -0.3815
     23 C         139.9764  138.0245  155.0294 C.3     1  UNL1        0.1497
     24 C         139.5030  136.8207  154.2701 C.3     1  UNL1        0.0356
     25 O         140.7124  136.7871  155.4500 O.3     1  UNL1       -0.3808
     26 H         137.2678  146.0646  154.3335 H       1  UNL1        0.2103
     27 H         137.8707  137.1874  152.7561 H       1  UNL1        0.2105
     28 H         140.3849  136.0279  154.9427 H       1  UNL1        0.2105
     29 C         142.6342  136.8284  157.4381 C.3     1  UNL1        0.0039
     30 C         141.5965  136.9801  156.3657 C.3     1  UNL1        0.0462
     31 O         142.0228  144.2595  158.5635 O.3     1  UNL1       -0.3323
     32 C         141.6426  144.2966  160.0140 C.3     1  UNL1        0.2375
     33 C         140.2289  144.0107  160.4263 C.3     1  UNL1        0.0910
     34 C         139.8486  144.0478  161.8769 C.3     1  UNL1        0.1246
     35 C         139.0081  143.9624  163.1163 C.3     1  UNL1        0.0324
     36 C         140.8820  144.3707  162.9151 C.3     1  UNL1        0.1623
     37 O         140.5017  144.4078  164.3656 O.3     1  UNL1       -0.3796
     38 C         142.2956  144.6565  162.5028 C.3     1  UNL1        0.1468
     39 C         143.3289  144.9794  163.5411 C.3     1  UNL1        0.0348
     40 O         142.6759  144.6195  161.0523 O.3     1  UNL1       -0.3304
     41 H         139.5584  144.2015  164.4578 H       1  UNL1        0.2105
     42 O         138.5234  143.6953  161.2691 O.3     1  UNL1       -0.3532
     43 C         138.3971  142.4807  160.3979 C.3     1  UNL1        0.1740
     44 O         139.1034  146.1413  156.1555 O.3     1  UNL1       -0.3287
     45 C         139.5976  147.1005  155.1134 C.3     1  UNL1        0.2643
     46 O         140.5655  146.6366  154.0657 O.3     1  UNL1       -0.3311
     47 C         141.0596  147.5958  153.0237 C.3     1  UNL1        0.1194
     48 C         142.0276  147.1318  151.9759 C.3     1  UNL1        0.0322
     49 C         140.5857  149.0189  153.0294 C.3     1  UNL1        0.0482
     50 C         139.6178  149.4829  154.0772 C.3     1  UNL1        0.0921
     51 C         139.1236  148.5238  155.1192 C.3     1  UNL1        0.1815
     52 O         138.1557  148.9877  156.1670 O.3     1  UNL1       -0.3783
     53 H         137.9400  148.2491  156.7575 H       1  UNL1        0.2106
     54 N         139.1439  150.9061  154.0828 N.3     1  UNL1       -0.2692
     55 C         138.8837  151.6047  155.3844 C.3     1  UNL1        0.0897
     56 C         138.9304  151.6306  152.7869 C.3     1  UNL1        0.0897
@<TRIPOS>BOND
     1    29    30    1
     2    30     1    1
     3     1     2    1
     4     2     3    1
     5     3     4    2
     6     3     5    1
     7     5     6    1
     8     5     7    1
     9     7    31    1
    10    31    32    1
    11    32    33    1
    12    33    34    1
    13    34    35    1
    14    34    42    1
    15    42    43    1
    16    34    36    1
    17    36    37    1
    18    36    38    1
    19    38    39    1
    20    38    40    1
    21     7     8    1
    22     8     9    1
    23     8    10    1
    24    10    44    1
    25    44    45    1
    26    45    46    1
    27    46    47    1
    28    47    48    1
    29    47    49    1
    30    49    50    1
    31    50    54    1
    32    54    55    1
    33    54    56    1
    34    50    51    1
    35    51    52    1
    36    10    11    1
    37    11    12    1
    38    11    13    1
    39    11    14    1
    40    14    15    1
    41    15    16    1
    42    15    17    1
    43    17    18    2
    44    17    19    1
    45    19    20    1
    46    19    21    1
    47    21    22    1
    48    21    23    1
    49    23    24    1
    50    23    25    1
    51    23     1    1
    52    40    32    1
    53    51    45    1
    54    37    41    1
    55    52    53    1
    56    13    26    1
    57    22    27    1
    58    25    28    1
@<TRIPOS>MOLECULE
*****
 56 58 0 0 0
SMALL
GASTEIGER

@<TRIPOS>ATOM
      1 C         142.1669  143.5549  153.8259 C.3     1  UNL1        0.1953
      2 O         143.2146  143.1569  154.8228 O.3     1  UNL1       -0.4497
      3 C         143.7012  142.5180  156.0896 C.2     1  UNL1        0.3188
      4 O         145.1784  142.7749  156.0471 O.2     1  UNL1       -0.2500
      5 C         143.5304  141.7646  157.3756 C.3     1  UNL1        0.1263
      6 C         144.8618  141.8607  157.5771 C.3     1  UNL1        0.0142
      7 C         142.7360  141.0462  158.4257 C.3     1  UNL1        0.1306
      8 C         141.4753  140.5049  159.0321 C.3     1  UNL1        0.0575
      9 C         141.9620  139.8659  160.2990 C.3     1  UNL1        0.0051
     10 C         139.9982  140.2479  159.0748 C.3     1  UNL1        0.1444
     11 C         138.5969  140.3262  158.5452 C.3     1  UNL1        0.1137
     12 C         138.6481  139.5950  159.8538 C.3     1  UNL1        0.0318
     13 O         137.2331  139.8703  158.9718 O.3     1  UNL1       -0.3844
     14 C         137.5493  140.7243  157.5482 C.3     1  UNL1        0.0366
     15 C         137.0627  141.3632  156.2814 C.3     1  UNL1        0.0601
     16 C         135.5854  141.1063  156.3240 C.3     1  UNL1        0.0078
     17 C         137.2334  142.1166  154.9955 C.2     1  UNL1        0.1523
     18 O         135.8322  142.1949  154.4659 O.2     1  UNL1       -0.2960
     19 C         138.0278  142.8350  153.9453 C.3     1  UNL1        0.0869
     20 C         136.9801  143.2331  152.9484 C.3     1  UNL1        0.0104
     21 C         139.2885  143.3763  153.3389 C.3     1  UNL1        0.1451
     22 O         138.8018  144.0153  152.0720 O.3     1  UNL1       -0.3815
     23 C         140.7657  143.6332  153.2963 C.3     1  UNL1        0.1497
     24 C         140.0752  144.2040  152.0932 C.3     1  UNL1        0.0356
     25 O         141.7384  144.3072  152.3746 O.3     1  UNL1       -0.3808
     26 H         137.2989  139.4022  159.8188 H       1  UNL1        0.2103
     27 H         137.8408  143.9034  152.0019 H       1  UNL1        0.2105
     28 H         141.2631  144.6651  151.6085 H       1  UNL1        0.2105
     29 C         144.1475  145.1028  153.1692 C.3     1  UNL1        0.0039
     30 C         142.9613  144.2734  152.7757 C.3     1  UNL1        0.0462
     31 O         143.7837  140.6481  159.4227 O.3     1  UNL1       -0.3323
     32 C         143.9913  141.4692  160.6607 C.3     1  UNL1        0.2375
     33 C         143.3407  142.8150  160.7858 C.3     1  UNL1        0.0910
     34 C         143.5482  143.6362  162.0239 C.3     1  UNL1        0.1246
     35 C         143.4453  144.7771  162.9922 C.3     1  UNL1        0.0324
     36 C         144.4064  143.1115  163.1367 C.3     1  UNL1        0.1623
     37 O         144.6139  143.9327  164.3747 O.3     1  UNL1       -0.3796
     38 C         145.0570  141.7657  163.0115 C.3     1  UNL1        0.1468
     39 C         145.9151  141.2411  164.1243 C.3     1  UNL1        0.0348
     40 O         144.8494  140.9446  161.7736 O.3     1  UNL1       -0.3304
     41 H         144.1275  144.7680  164.2938 H       1  UNL1        0.2105
     42 O         142.6544  144.5570  161.2473 O.3     1  UNL1       -0.3532
     43 C         141.3470  144.0559  160.7092 C.3     1  UNL1        0.1740
     44 O         139.8274  139.4947  160.3606 O.3     1  UNL1       -0.3287
     45 C         139.4101  140.2204  161.6053 C.3     1  UNL1        0.2643
     46 O         138.8639  141.6144  161.5132 O.3     1  UNL1       -0.3311
     47 C         138.4466  142.3401  162.7579 C.3     1  UNL1        0.1194
     48 C         137.9004  143.7341  162.6658 C.3     1  UNL1        0.0322
     49 C         138.5756  141.6719  164.0946 C.3     1  UNL1        0.0482
     50 C         139.1218  140.2779  164.1866 C.3     1  UNL1        0.0921
     51 C         139.5391  139.5521  162.9420 C.3     1  UNL1        0.1815
     52 O         140.0853  138.1582  163.0340 O.3     1  UNL1       -0.3783
     53 H         140.3045  137.8375  162.1452 H       1  UNL1        0.2106
     54 N         139.2508  139.6097  165.5234 N.3     1  UNL1       -0.2692
     55 C         138.0526  138.9722  166.1619 C.3     1  UNL1        0.0897
     56 C         140.5780  139.5791  166.2216 C.3     1  UNL1        0.0897
@<TRIPOS>BOND
     1    29    30    1
     2    30     1    1
     3     1     2    1
     4     2     3    1
     5     3     4    2
     6     3     5    1
     7     5     6    1
     8     5     7    1
     9     7    31    1
    10    31    32    1
    11    32    33    1
    12    33    34    1
    13    34    35    1
    14    34    42    1
    15    42    43    1
    16    34    36    1
    17    36    37    1
    18    36    38    1
    19    38    39    1
    20    38    40    1
    21     7     8    1
    22     8     9    1
    23     8    10    1
    24    10    44    1
    25    44    45    1
    26    45    46    1
    27    46    47    1
    28    47    48    1
    29    47    49    1
    30    49    50    1
    31    50    54    1
    32    54    55    1
    33    54    56    1
    34    50    51    1
    35    51    52    1
    36    10    11    1
    37    11    12    1
    38    11    13    1
    39    11    14    1
    40    14    15    1
    41    15    16    1
    42    15    17    1
    43    17    18    2
    44    17    19    1
    45    19    20    1
    46    19    21    1
    47    21    22    1
    48    21    23    1
    49    23    24    1
    50    23    25    1
    51    23     1    1
    52    40    32    1
    53    51    45    1
    54    37    41    1
    55    52    53    1
    56    13    26    1
    57    22    27    1
    58    25    28    1
@<TRIPOS>MOLECULE
*****
 56 58 0 0 0
SMALL
GASTEIGER

@<TRIPOS>ATOM
      1 C         138.9752  138.4625  154.7191 C.3     1  UNL1        0.1953
      2 O         140.0432  137.8843  155.5996 O.3     1  UNL1       -0.4497
      3 C         141.1294  137.9561  156.6315 C.2     1  UNL1        0.3188
      4 O         141.5716  136.5277  156.7505 O.2     1  UNL1       -0.2500
      5 C         142.0190  138.6635  157.6105 C.3     1  UNL1        0.1263
      6 C         142.5937  137.4777  157.9037 C.3     1  UNL1        0.0142
      7 C         142.5355  139.8665  158.3426 C.3     1  UNL1        0.1306
      8 C         142.5767  141.3269  158.6828 C.3     1  UNL1        0.0575
      9 C         143.6630  141.3986  159.7147 C.3     1  UNL1        0.0051
     10 C         142.1346  142.7553  158.5638 C.3     1  UNL1        0.1444
     11 C         141.2965  143.8688  158.0091 C.3     1  UNL1        0.1137
     12 C         142.2739  144.3740  159.0286 C.3     1  UNL1        0.0318
     13 O         141.1726  145.3515  158.1993 O.3     1  UNL1       -0.3844
     14 C         140.2286  144.4470  157.1286 C.3     1  UNL1        0.0366
     15 C         139.1423  144.3753  156.0967 C.3     1  UNL1        0.0601
     16 C         138.7001  145.8037  155.9777 C.3     1  UNL1        0.0078
     17 C         138.2528  143.6678  155.1177 C.2     1  UNL1        0.1523
     18 O         137.4147  144.7814  154.5630 O.2     1  UNL1       -0.2960
     19 C         137.7363  142.4648  154.3856 C.3     1  UNL1        0.0869
     20 C         136.6683  143.0430  153.5051 C.3     1  UNL1        0.0104
     21 C         137.6950  141.0044  154.0454 C.3     1  UNL1        0.1451
     22 O         136.6087  140.9327  153.0135 O.3     1  UNL1       -0.3815
     23 C         138.1372  139.5761  154.1644 C.3     1  UNL1        0.1497
     24 C         137.0324  139.7259  153.1610 C.3     1  UNL1        0.0356
     25 O         137.7722  138.2572  153.5502 O.3     1  UNL1       -0.3808
     26 H         141.8157  145.6473  158.8625 H       1  UNL1        0.2103
     27 H         136.2492  141.8205  152.8603 H       1  UNL1        0.2105
     28 H         137.0572  138.3866  152.9076 H       1  UNL1        0.2105
     29 C         139.2607  136.6594  152.8705 C.3     1  UNL1        0.0039
     30 C         138.4587  137.2595  153.9870 C.3     1  UNL1        0.0462
     31 O         143.6034  139.2884  159.2231 O.3     1  UNL1       -0.3323
     32 C         143.3053  138.9814  160.6607 C.3     1  UNL1        0.2375
     33 C         142.0169  138.3091  161.0324 C.3     1  UNL1        0.0910
     34 C         141.7186  138.0022  162.4701 C.3     1  UNL1        0.1246
     35 C         140.9885  137.5088  163.6840 C.3     1  UNL1        0.0324
     36 C         142.7088  138.3675  163.5360 C.3     1  UNL1        0.1623
     37 O         142.4106  138.0605  164.9736 O.3     1  UNL1       -0.3796
     38 C         143.9972  139.0398  163.1642 C.3     1  UNL1        0.1468
     39 C         144.9873  139.4051  164.2302 C.3     1  UNL1        0.0348
     40 O         144.2954  139.3467  161.7267 O.3     1  UNL1       -0.3304
     41 H         141.5442  137.6291  165.0391 H       1  UNL1        0.2105
     42 O         140.4749  137.4655  161.8258 O.3     1  UNL1       -0.3532
     43 C         139.7094  138.3120  160.8526 C.3     1  UNL1        0.1740
     44 O         143.0240  143.4627  159.5427 O.3     1  UNL1       -0.3287
     45 C         142.4946  143.8532  160.8908 C.3     1  UNL1        0.2643
     46 O         141.0564  144.2504  161.0454 O.3     1  UNL1       -0.3311
     47 C         140.5270  144.6409  162.3935 C.3     1  UNL1        0.1194
     48 C         139.0888  145.0381  162.5481 C.3     1  UNL1        0.0322
     49 C         141.4357  144.6343  163.5868 C.3     1  UNL1        0.0482
     50 C         142.8739  144.2372  163.4321 C.3     1  UNL1        0.0921
     51 C         143.4034  143.8466  162.0842 C.3     1  UNL1        0.1815
     52 O         144.8415  143.4495  161.9294 O.3     1  UNL1       -0.3783
     53 H         145.0180  143.2287  161.0015 H       1  UNL1        0.2106
     54 N         143.7826  144.2306  164.6256 N.3     1  UNL1       -0.2692
     55 C         144.4661  145.4949  165.0548 C.3     1  UNL1        0.0897
     56 C         144.0079  142.9596  165.3897 C.3     1  UNL1        0.0897
@<TRIPOS>BOND
     1    29    30    1
     2    30     1    1
     3     1     2    1
     4     2     3    1
     5     3     4    2
     6     3     5    1
     7     5     6    1
     8     5     7    1
     9     7    31    1
    10    31    32    1
    11    32    33    1
    12    33    34    1
    13    34    35    1
    14    34    42    1
    15    42    43    1
    16    34    36    1
    17    36    37    1
    18    36    38    1
    19    38    39    1
    20    38    40    1
    21     7     8    1
    22     8     9    1
    23     8    10    1
    24    10    44    1
    25    44    45    1
    26    45    46    1
    27    46    47    1
    28    47    48    1
    29    47    49    1
    30    49    50    1
    31    50    54    1
    32    54    55    1
    33    54    56    1
    34    50    51    1
    35    51    52    1
    36    10    11    1
    37    11    12    1
    38    11    13    1
    39    11    14    1
    40    14    15    1
    41    15    16    1
    42    15    17    1
    43    17    18    2
    44    17    19    1
    45    19    20    1
    46    19    21    1
    47    21    22    1
    48    21    23    1
    49    23    24    1
    50    23    25    1
    51    23     1    1
    52    40    32    1
    53    51    45    1
    54    37    41    1
    55    52    53    1
    56    13    26    1
    57    22    27    1
    58    25    28    1
@<TRIPOS>MOLECULE
*****
 56 58 0 0 0
SMALL
GASTEIGER

@<TRIPOS>ATOM
      1 C         139.3511  141.3684  154.3571 C.3     1  UNL1        0.1953
      2 O         139.5068  142.4190  155.4164 O.3     1  UNL1       -0.4497
      3 C         139.9749  142.9430  156.7416 C.2     1  UNL1        0.3188
      4 O         139.4810  144.3594  156.7338 O.2     1  UNL1       -0.2500
      5 C         140.6630  142.8368  158.0703 C.3     1  UNL1        0.1263
      6 C         140.3360  144.1241  158.3120 C.3     1  UNL1        0.0142
      7 C         141.4346  142.1213  159.1393 C.3     1  UNL1        0.1306
      8 C         142.1369  140.9381  159.7368 C.3     1  UNL1        0.0575
      9 C         142.6051  141.4623  161.0620 C.3     1  UNL1        0.0051
     10 C         142.6309  139.5219  159.7446 C.3     1  UNL1        0.1444
     11 C         142.8186  138.1528  159.1611 C.3     1  UNL1        0.1137
     12 C         143.4468  138.2607  160.5189 C.3     1  UNL1        0.0318
     13 O         143.4654  136.8626  159.5696 O.3     1  UNL1       -0.3844
     14 C         142.6630  137.1023  158.1018 C.3     1  UNL1        0.0366
     15 C         142.1948  136.5782  156.7766 C.3     1  UNL1        0.0601
     16 C         142.6888  135.1619  156.7844 C.3     1  UNL1        0.0078
     17 C         141.5068  136.6844  155.4479 C.2     1  UNL1        0.1523
     18 O         141.6945  135.3154  154.8644 O.2     1  UNL1       -0.2960
     19 C         140.7352  137.3999  154.3789 C.3     1  UNL1        0.0869
     20 C         140.5795  136.3493  153.3197 C.3     1  UNL1        0.0104
     21 C         140.0328  138.5831  153.7814 C.3     1  UNL1        0.1451
     22 O         139.5647  138.0590  152.4562 O.3     1  UNL1       -0.3815
     23 C         139.5389  139.9993  153.7736 C.3     1  UNL1        0.1497
     24 C         139.1674  139.2825  152.5095 C.3     1  UNL1        0.0356
     25 O         138.7735  140.8918  152.8422 O.3     1  UNL1       -0.3808
     26 H         143.8615  136.9638  160.4492 H       1  UNL1        0.2103
     27 H         139.8378  137.1332  152.3599 H       1  UNL1        0.2105
     28 H         138.5483  140.4011  152.0364 H       1  UNL1        0.2105
     29 C         137.3850  142.9142  153.6537 C.3     1  UNL1        0.0039
     30 C         138.5795  142.0839  153.2882 C.3     1  UNL1        0.0462
     31 O         141.5902  143.1719  160.1985 O.3     1  UNL1       -0.3323
     32 C         140.6159  143.2391  161.3370 C.3     1  UNL1        0.2375
     33 C         140.7883  144.2712  162.4117 C.3     1  UNL1        0.0910
     34 C         139.8139  144.3385  163.5502 C.3     1  UNL1        0.1246
     35 C         139.1588  144.7960  164.8197 C.3     1  UNL1        0.0324
     36 C         138.6672  143.3735  163.6140 C.3     1  UNL1        0.1623
     37 O         137.6929  143.4408  164.7525 O.3     1  UNL1       -0.3796
     38 C         138.4949  142.3414  162.5393 C.3     1  UNL1        0.1468
     39 C         137.3482  141.3765  162.6031 C.3     1  UNL1        0.0348
     40 O         139.4691  142.2742  161.4008 O.3     1  UNL1       -0.3304
     41 H         137.9473  144.1583  165.3537 H       1  UNL1        0.2105
     42 O         140.7331  145.4623  163.9273 O.3     1  UNL1       -0.3532
     43 C         142.2189  145.2595  163.8931 C.3     1  UNL1        0.1740
     44 O         143.3189  139.4156  161.0732 O.3     1  UNL1       -0.3287
     45 C         142.5472  138.9841  162.2850 C.3     1  UNL1        0.2643
     46 O         141.1464  138.4683  162.1377 O.3     1  UNL1       -0.3311
     47 C         140.3749  138.0367  163.3495 C.3     1  UNL1        0.1194
     48 C         138.9740  137.5209  163.2023 C.3     1  UNL1        0.0322
     49 C         141.0041  138.1210  164.7085 C.3     1  UNL1        0.0482
     50 C         142.4049  138.6368  164.8558 C.3     1  UNL1        0.0921
     51 C         143.1765  139.0684  163.6441 C.3     1  UNL1        0.1815
     52 O         144.5773  139.5842  163.7913 O.3     1  UNL1       -0.3783
     53 H         144.9293  139.8176  162.9181 H       1  UNL1        0.2106
     54 N         143.0340  138.7211  166.2149 N.3     1  UNL1       -0.2692
     55 C         144.1196  137.7602  166.5997 C.3     1  UNL1        0.0897
     56 C         142.5776  139.7662  167.1892 C.3     1  UNL1        0.0897
@<TRIPOS>BOND
     1    29    30    1
     2    30     1    1
     3     1     2    1
     4     2     3    1
     5     3     4    2
     6     3     5    1
     7     5     6    1
     8     5     7    1
     9     7    31    1
    10    31    32    1
    11    32    33    1
    12    33    34    1
    13    34    35    1
    14    34    42    1
    15    42    43    1
    16    34    36    1
    17    36    37    1
    18    36    38    1
    19    38    39    1
    20    38    40    1
    21     7     8    1
    22     8     9    1
    23     8    10    1
    24    10    44    1
    25    44    45    1
    26    45    46    1
    27    46    47    1
    28    47    48    1
    29    47    49    1
    30    49    50    1
    31    50    54    1
    32    54    55    1
    33    54    56    1
    34    50    51    1
    35    51    52    1
    36    10    11    1
    37    11    12    1
    38    11    13    1
    39    11    14    1
    40    14    15    1
    41    15    16    1
    42    15    17    1
    43    17    18    2
    44    17    19    1
    45    19    20    1
    46    19    21    1
    47    21    22    1
    48    21    23    1
    49    23    24    1
    50    23    25    1
    51    23     1    1
    52    40    32    1
    53    51    45    1
    54    37    41    1
    55    52    53    1
    56    13    26    1
    57    22    27    1
    58    25    28    1
@<TRIPOS>MOLECULE
*****
 56 58 0 0 0
SMALL
GASTEIGER

@<TRIPOS>ATOM
      1 C         139.8942  143.8391  164.0647 C.3     1  UNL1        0.1953
      2 O         139.9676  144.7868  162.9044 O.3     1  UNL1       -0.4497
      3 C         140.3398  145.1866  161.5074 C.2     1  UNL1        0.3188
      4 O         139.8339  146.5959  161.4174 O.2     1  UNL1       -0.2500
      5 C         140.9374  144.9593  160.1504 C.3     1  UNL1        0.1263
      6 C         140.5823  146.2173  159.8132 C.3     1  UNL1        0.0142
      7 C         141.6417  144.1498  159.1022 C.3     1  UNL1        0.1306
      8 C         142.3134  142.9185  158.5705 C.3     1  UNL1        0.0575
      9 C         142.6857  143.3183  157.1735 C.3     1  UNL1        0.0051
     10 C         142.8194  141.5093  158.6604 C.3     1  UNL1        0.1444
     11 C         143.0595  140.2013  159.3543 C.3     1  UNL1        0.1137
     12 C         143.5933  140.1842  157.9526 C.3     1  UNL1        0.0318
     13 O         143.6897  138.8808  159.0240 O.3     1  UNL1       -0.3844
     14 C         142.9862  139.2535  160.5146 C.3     1  UNL1        0.0366
     15 C         142.6139  138.8537  161.9115 C.3     1  UNL1        0.0601
     16 C         143.1199  137.4445  162.0015 C.3     1  UNL1        0.0078
     17 C         142.0164  139.0810  163.2686 C.2     1  UNL1        0.1523
     18 O         142.2565  137.7730  163.9624 O.2     1  UNL1       -0.2960
     19 C         141.3120  139.8905  164.3167 C.3     1  UNL1        0.0869
     20 C         141.2387  138.9427  165.4770 C.3     1  UNL1        0.0104
     21 C         140.6403  141.1219  164.8485 C.3     1  UNL1        0.1451
     22 O         140.2680  140.7220  166.2455 O.3     1  UNL1       -0.3815
     23 C         140.1343  142.5310  164.7585 C.3     1  UNL1        0.1497
     24 C         139.8562  141.9339  166.1061 C.3     1  UNL1        0.0356
     25 O         139.4251  143.5039  165.6532 O.3     1  UNL1       -0.3808
     26 H         144.0243  138.9009  158.1137 H       1  UNL1        0.2103
     27 H         140.5560  139.8102  166.4084 H       1  UNL1        0.2105
     28 H         139.2598  143.0897  166.5146 H       1  UNL1        0.2105
     29 C         137.6908  144.6820  165.1530 C.3     1  UNL1        0.0039
     30 C         139.1898  144.6485  165.1129 C.3     1  UNL1        0.0462
     31 O         141.7151  145.0976  157.9419 O.3     1  UNL1       -0.3323
     32 C         140.5260  145.2795  157.0458 C.3     1  UNL1        0.2375
     33 C         139.5418  144.1613  156.8695 C.3     1  UNL1        0.0910
     34 C         138.3527  144.3431  155.9734 C.3     1  UNL1        0.1246
     35 C         137.0815  144.0364  155.2386 C.3     1  UNL1        0.0324
     36 C         138.1478  145.6431  155.2536 C.3     1  UNL1        0.1623
     37 O         136.9587  145.8249  154.3575 O.3     1  UNL1       -0.3796
     38 C         139.1320  146.7612  155.4300 C.3     1  UNL1        0.1468
     39 C         138.9271  148.0612  154.7102 C.3     1  UNL1        0.0348
     40 O         140.3211  146.5795  156.3260 O.3     1  UNL1       -0.3304
     41 H         136.4281  145.0128  154.3557 H       1  UNL1        0.2105
     42 O         138.1161  142.9366  156.4380 O.3     1  UNL1       -0.3532
     43 C         138.1096  142.6223  157.9046 C.3     1  UNL1        0.1740
     44 O         143.4169  141.2820  157.3035 O.3     1  UNL1       -0.3287
     45 C         143.0040  140.0896  156.4924 C.3     1  UNL1        0.2643
     46 O         143.9387  138.9265  156.3393 O.3     1  UNL1       -0.3311
     47 C         143.5258  137.7343  155.5282 C.3     1  UNL1        0.1194
     48 C         144.4605  136.5711  155.3752 C.3     1  UNL1        0.0322
     49 C         142.1782  137.7051  154.8702 C.3     1  UNL1        0.0482
     50 C         141.2434  138.8682  155.0232 C.3     1  UNL1        0.0921
     51 C         141.6563  140.0605  155.8343 C.3     1  UNL1        0.1815
     52 O         140.7216  141.2236  155.9874 O.3     1  UNL1       -0.3783
     53 H         141.1399  141.9043  156.5376 H       1  UNL1        0.2106
     54 N         139.8958  138.8390  154.3651 N.3     1  UNL1       -0.2692
     55 C         139.6896  139.5252  153.0474 C.3     1  UNL1        0.0897
     56 C         138.7544  138.1234  155.0248 C.3     1  UNL1        0.0897
@<TRIPOS>BOND
     1    29    30    1
     2    30     1    1
     3     1     2    1
     4     2     3    1
     5     3     4    2
     6     3     5    1
     7     5     6    1
     8     5     7    1
     9     7    31    1
    10    31    32    1
    11    32    33    1
    12    33    34    1
    13    34    35    1
    14    34    42    1
    15    42    43    1
    16    34    36    1
    17    36    37    1
    18    36    38    1
    19    38    39    1
    20    38    40    1
    21     7     8    1
    22     8     9    1
    23     8    10    1
    24    10    44    1
    25    44    45    1
    26    45    46    1
    27    46    47    1
    28    47    48    1
    29    47    49    1
    30    49    50    1
    31    50    54    1
    32    54    55    1
    33    54    56    1
    34    50    51    1
    35    51    52    1
    36    10    11    1
    37    11    12    1
    38    11    13    1
    39    11    14    1
    40    14    15    1
    41    15    16    1
    42    15    17    1
    43    17    18    2
    44    17    19    1
    45    19    20    1
    46    19    21    1
    47    21    22    1
    48    21    23    1
    49    23    24    1
    50    23    25    1
    51    23     1    1
    52    40    32    1
    53    51    45    1
    54    37    41    1
    55    52    53    1
    56    13    26    1
    57    22    27    1
    58    25    28    1
