@<TRIPOS>MOLECULE
*****
 30 32 0 0 0
SMALL
GASTEIGER

@<TRIPOS>ATOM
      1 N         139.9487  141.9866  166.4653 N.pl3   1  UNL1       -0.2149
      2 H         139.1890  141.3628  166.5195 H       1  UNL1        0.1737
      3 C         140.8046  142.2328  167.6722 C.ar    1  UNL1        0.0678
      4 C         140.3441  143.1838  168.7369 C.ar    1  UNL1        0.0160
      5 C         141.1999  143.4300  169.9439 C.ar    1  UNL1        0.0013
      6 C         142.5163  142.7252  170.0863 C.ar    1  UNL1        0.0002
      7 C         142.9769  141.7742  169.0217 C.ar    1  UNL1        0.0045
      8 C         142.1210  141.5279  167.8146 C.ar    1  UNL1        0.0535
      9 C         142.5816  140.5769  166.7500 C.2     1  UNL1        0.1968
     10 O         142.0925  139.1589  166.7485 O.2     1  UNL1       -0.2865
     11 C         143.5312  141.0439  165.6869 C.ar    1  UNL1        0.0390
     12 C         143.8947  142.4960  165.5913 C.ar    1  UNL1        0.0032
     13 C         144.8443  142.9630  164.5282 C.ar    1  UNL1        0.0001
     14 C         145.4303  141.9779  163.5607 C.ar    1  UNL1        0.0000
     15 C         145.0668  140.5258  163.6564 C.ar    1  UNL1        0.0001
     16 C         144.1172  140.0588  164.7195 C.ar    1  UNL1        0.0032
     17 S         140.2504  142.6908  165.1757 S.O2    1  UNL1        0.0736
     18 O         140.1215  144.0149  165.8686 O.2     1  UNL1       -0.1499
     19 O         140.3793  141.3667  164.4827 O.2     1  UNL1       -0.1499
     20 C         141.1553  144.8035  161.3069 C.ar    1  UNL1        0.0504
     21 C         140.2819  145.4609  162.3339 C.ar    1  UNL1        0.0160
     22 C         139.9802  144.7566  163.6235 C.ar    1  UNL1        0.0215
     23 C         140.5520  143.3950  163.8861 C.ar    1  UNL1        0.1253
     24 C         141.4255  142.7376  162.8590 C.ar    1  UNL1        0.0215
     25 C         141.7271  143.4419  161.5694 C.ar    1  UNL1        0.0160
     26 C         140.9305  145.9320  157.5087 C.3     1  UNL1        0.0949
     27 C         140.6288  145.2278  158.7983 C.2     1  UNL1        0.2266
     28 O         139.4990  144.2436  158.8690 O.2     1  UNL1       -0.2748
     29 N         141.4570  145.5077  160.0172 N.am    1  UNL1       -0.2839
     30 H         142.1985  146.1536  159.9709 H       1  UNL1        0.1549
@<TRIPOS>BOND
     1    26    27    1
     2    27    28    2
     3    27    29   am
     4    29    20    1
     5    20    21   ar
     6    21    22   ar
     7    22    23   ar
     8    23    17    1
     9    17    18    2
    10    17    19    2
    11    17     1    1
    12     1     3    1
    13     3     4   ar
    14     4     5   ar
    15     5     6   ar
    16     6     7   ar
    17     7     8   ar
    18     8     9    1
    19     9    10    2
    20     9    11    1
    21    11    12   ar
    22    12    13   ar
    23    13    14   ar
    24    14    15   ar
    25    15    16   ar
    26    23    24   ar
    27    24    25   ar
    28    25    20   ar
    29     8     3   ar
    30    16    11   ar
    31    29    30    1
    32     1     2    1
@<TRIPOS>MOLECULE
*****
 30 32 0 0 0
SMALL
GASTEIGER

@<TRIPOS>ATOM
      1 N         142.9269  141.1027  166.4260 N.pl3   1  UNL1       -0.2149
      2 H         143.4198  140.2531  166.4935 H       1  UNL1        0.1737
      3 C         142.3541  141.7374  167.6584 C.ar    1  UNL1        0.0678
      4 C         143.2682  142.2680  168.7228 C.ar    1  UNL1        0.0160
      5 C         142.6953  142.9027  169.9553 C.ar    1  UNL1        0.0013
      6 C         141.2084  143.0069  170.1233 C.ar    1  UNL1        0.0002
      7 C         140.2943  142.4764  169.0589 C.ar    1  UNL1        0.0045
      8 C         140.8672  141.8416  167.8264 C.ar    1  UNL1        0.0535
      9 C         139.9531  141.3110  166.7621 C.2     1  UNL1        0.1968
     10 O         139.6402  139.8452  166.7046 O.2     1  UNL1       -0.2865
     11 C         139.3519  142.2463  165.7552 C.ar    1  UNL1        0.0390
     12 C         139.7299  143.6978  165.7605 C.ar    1  UNL1        0.0032
     13 C         139.1288  144.6331  164.7536 C.ar    1  UNL1        0.0001
     14 C         138.1496  144.1169  163.7414 C.ar    1  UNL1        0.0000
     15 C         137.7715  142.6653  163.7361 C.ar    1  UNL1        0.0001
     16 C         138.3727  141.7300  164.7430 C.ar    1  UNL1        0.0032
     17 S         142.7488  141.7623  165.0906 S.O2    1  UNL1        0.0736
     18 O         142.2254  140.4755  164.5248 O.2     1  UNL1       -0.1499
     19 O         143.2722  143.0491  165.6564 O.2     1  UNL1       -0.1499
     20 C         142.2145  143.7412  161.0845 C.ar    1  UNL1        0.0504
     21 C         143.0977  144.3711  162.1204 C.ar    1  UNL1        0.0160
     22 C         143.2758  143.7115  163.4557 C.ar    1  UNL1        0.0215
     23 C         142.5707  142.4219  163.7553 C.ar    1  UNL1        0.1253
     24 C         141.6875  141.7920  162.7194 C.ar    1  UNL1        0.0215
     25 C         141.5093  142.4516  161.3841 C.ar    1  UNL1        0.0160
     26 C         140.6080  145.8357  158.1211 C.3     1  UNL1        0.0949
     27 C         140.7861  145.1760  159.4564 C.2     1  UNL1        0.2266
     28 O         139.7138  145.2917  160.4990 O.2     1  UNL1       -0.2748
     29 N         142.0364  144.4008  159.7492 N.am    1  UNL1       -0.2839
     30 H         142.7401  144.3249  159.0649 H       1  UNL1        0.1549
@<TRIPOS>BOND
     1    26    27    1
     2    27    28    2
     3    27    29   am
     4    29    20    1
     5    20    21   ar
     6    21    22   ar
     7    22    23   ar
     8    23    17    1
     9    17    18    2
    10    17    19    2
    11    17     1    1
    12     1     3    1
    13     3     4   ar
    14     4     5   ar
    15     5     6   ar
    16     6     7   ar
    17     7     8   ar
    18     8     9    1
    19     9    10    2
    20     9    11    1
    21    11    12   ar
    22    12    13   ar
    23    13    14   ar
    24    14    15   ar
    25    15    16   ar
    26    23    24   ar
    27    24    25   ar
    28    25    20   ar
    29     8     3   ar
    30    16    11   ar
    31    29    30    1
    32     1     2    1
@<TRIPOS>MOLECULE
*****
 30 32 0 0 0
SMALL
GASTEIGER

@<TRIPOS>ATOM
      1 N         142.2701  142.3894  166.7860 N.pl3   1  UNL1       -0.2149
      2 H         143.2367  142.3733  166.9721 H       1  UNL1        0.1737
      3 C         141.2993  141.8982  167.8186 C.ar    1  UNL1        0.0678
      4 C         140.8315  142.8191  168.9064 C.ar    1  UNL1        0.0160
      5 C         139.8607  142.3279  169.9389 C.ar    1  UNL1        0.0013
      6 C         139.3576  140.9158  169.8837 C.ar    1  UNL1        0.0002
      7 C         139.8254  139.9950  168.7960 C.ar    1  UNL1        0.0045
      8 C         140.7963  140.4862  167.7634 C.ar    1  UNL1        0.0535
      9 C         141.2640  139.5653  166.6757 C.2     1  UNL1        0.1968
     10 O         142.6431  138.9779  166.7318 O.2     1  UNL1       -0.2865
     11 C         140.3528  139.2318  165.5318 C.ar    1  UNL1        0.0390
     12 C         140.6226  138.0230  164.6858 C.ar    1  UNL1        0.0032
     13 C         139.7113  137.6895  163.5419 C.ar    1  UNL1        0.0001
     14 C         138.5302  138.5649  163.2441 C.ar    1  UNL1        0.0000
     15 C         138.2604  139.7738  164.0902 C.ar    1  UNL1        0.0001
     16 C         139.1717  140.1072  165.2340 C.ar    1  UNL1        0.0032
     17 S         141.7682  142.9052  165.4700 S.O2    1  UNL1        0.0736
     18 O         143.0586  142.5023  164.8199 O.2     1  UNL1       -0.1499
     19 O         140.4778  143.3081  166.1200 O.2     1  UNL1       -0.1499
     20 C         140.2625  144.4526  161.5217 C.ar    1  UNL1        0.0504
     21 C         140.6913  145.4143  162.5900 C.ar    1  UNL1        0.0160
     22 C         141.1932  144.8985  163.9060 C.ar    1  UNL1        0.0215
     23 C         141.2663  143.4210  164.1539 C.ar    1  UNL1        0.1253
     24 C         140.8375  142.4592  163.0857 C.ar    1  UNL1        0.0215
     25 C         140.3356  142.9750  161.7696 C.ar    1  UNL1        0.0160
     26 C         140.2299  145.8326  157.8009 C.3     1  UNL1        0.0949
     27 C         140.7318  145.3168  159.1170 C.2     1  UNL1        0.2266
     28 O         142.2051  145.1495  159.3444 O.2     1  UNL1       -0.2748
     29 N         139.7606  144.9684  160.2057 N.am    1  UNL1       -0.2839
     30 H         138.7937  145.0782  160.0564 H       1  UNL1        0.1549
@<TRIPOS>BOND
     1    26    27    1
     2    27    28    2
     3    27    29   am
     4    29    20    1
     5    20    21   ar
     6    21    22   ar
     7    22    23   ar
     8    23    17    1
     9    17    18    2
    10    17    19    2
    11    17     1    1
    12     1     3    1
    13     3     4   ar
    14     4     5   ar
    15     5     6   ar
    16     6     7   ar
    17     7     8   ar
    18     8     9    1
    19     9    10    2
    20     9    11    1
    21    11    12   ar
    22    12    13   ar
    23    13    14   ar
    24    14    15   ar
    25    15    16   ar
    26    23    24   ar
    27    24    25   ar
    28    25    20   ar
    29     8     3   ar
    30    16    11   ar
    31    29    30    1
    32     1     2    1
@<TRIPOS>MOLECULE
*****
 30 32 0 0 0
SMALL
GASTEIGER

@<TRIPOS>ATOM
      1 N         139.3604  140.1002  166.2889 N.pl3   1  UNL1       -0.2149
      2 H         138.6030  139.4776  166.1997 H       1  UNL1        0.1737
      3 C         140.2078  140.0779  167.5264 C.ar    1  UNL1        0.0678
      4 C         139.6022  140.4170  168.8562 C.ar    1  UNL1        0.0160
      5 C         140.4496  140.3947  170.0937 C.ar    1  UNL1        0.0013
      6 C         141.9025  140.0333  170.0015 C.ar    1  UNL1        0.0002
      7 C         142.5080  139.6942  168.6717 C.ar    1  UNL1        0.0045
      8 C         141.6607  139.7165  167.4341 C.ar    1  UNL1        0.0535
      9 C         142.2662  139.3774  166.1044 C.2     1  UNL1        0.1968
     10 O         141.8742  138.1108  165.4029 O.2     1  UNL1       -0.2865
     11 C         143.2638  140.3048  165.4761 C.ar    1  UNL1        0.0390
     12 C         144.2966  139.7666  164.5309 C.ar    1  UNL1        0.0032
     13 C         145.2942  140.6940  163.9027 C.ar    1  UNL1        0.0001
     14 C         145.2589  142.1597  164.2196 C.ar    1  UNL1        0.0000
     15 C         144.2260  142.6979  165.1648 C.ar    1  UNL1        0.0001
     16 C         143.2285  141.7705  165.7930 C.ar    1  UNL1        0.0032
     17 S         139.6671  141.0709  165.1873 S.O2    1  UNL1        0.0736
     18 O         139.5651  139.9624  164.1820 O.2     1  UNL1       -0.1499
     19 O         139.7691  142.1795  166.1926 O.2     1  UNL1       -0.1499
     20 C         140.5871  143.9833  161.8825 C.ar    1  UNL1        0.0504
     21 C         141.1385  142.5894  161.8288 C.ar    1  UNL1        0.0160
     22 C         140.8319  141.6186  162.9304 C.ar    1  UNL1        0.0215
     23 C         139.9738  142.0417  164.0857 C.ar    1  UNL1        0.1253
     24 C         139.4224  143.4356  164.1393 C.ar    1  UNL1        0.0215
     25 C         139.7291  144.4064  163.0377 C.ar    1  UNL1        0.0160
     26 C         140.5129  145.7954  158.3525 C.3     1  UNL1        0.0949
     27 C         140.2062  144.8246  159.4541 C.2     1  UNL1        0.2266
     28 O         139.2119  143.7243  159.2289 O.2     1  UNL1       -0.2748
     29 N         140.8938  144.9541  160.7809 N.am    1  UNL1       -0.2839
     30 H         141.5464  145.6762  160.9287 H       1  UNL1        0.1549
@<TRIPOS>BOND
     1    26    27    1
     2    27    28    2
     3    27    29   am
     4    29    20    1
     5    20    21   ar
     6    21    22   ar
     7    22    23   ar
     8    23    17    1
     9    17    18    2
    10    17    19    2
    11    17     1    1
    12     1     3    1
    13     3     4   ar
    14     4     5   ar
    15     5     6   ar
    16     6     7   ar
    17     7     8   ar
    18     8     9    1
    19     9    10    2
    20     9    11    1
    21    11    12   ar
    22    12    13   ar
    23    13    14   ar
    24    14    15   ar
    25    15    16   ar
    26    23    24   ar
    27    24    25   ar
    28    25    20   ar
    29     8     3   ar
    30    16    11   ar
    31    29    30    1
    32     1     2    1
@<TRIPOS>MOLECULE
*****
 30 32 0 0 0
SMALL
GASTEIGER

@<TRIPOS>ATOM
      1 N         140.5159  139.6792  166.2670 N.pl3   1  UNL1       -0.2149
      2 H         140.9687  138.8078  166.3368 H       1  UNL1        0.1737
      3 C         140.2635  140.4942  167.5007 C.ar    1  UNL1        0.0678
      4 C         139.4434  139.9254  168.6205 C.ar    1  UNL1        0.0160
      5 C         139.1909  140.7404  169.8542 C.ar    1  UNL1        0.0013
      6 C         139.7585  142.1242  169.9681 C.ar    1  UNL1        0.0002
      7 C         140.5786  142.6930  168.8483 C.ar    1  UNL1        0.0045
      8 C         140.8310  141.8780  167.6145 C.ar    1  UNL1        0.0535
      9 C         141.6511  142.4468  166.4947 C.2     1  UNL1        0.1968
     10 O         143.1163  142.1384  166.4066 O.2     1  UNL1       -0.2865
     11 C         141.0058  143.3239  165.4631 C.ar    1  UNL1        0.0390
     12 C         141.7682  143.7220  164.2342 C.ar    1  UNL1        0.0032
     13 C         141.1230  144.5992  163.2026 C.ar    1  UNL1        0.0001
     14 C         139.7153  145.0783  163.3999 C.ar    1  UNL1        0.0000
     15 C         138.9529  144.6801  164.6288 C.ar    1  UNL1        0.0001
     16 C         139.5982  143.8030  165.6604 C.ar    1  UNL1        0.0032
     17 S         140.0784  140.1918  164.9269 S.O2    1  UNL1        0.0736
     18 O         138.6973  140.4211  165.4655 O.2     1  UNL1       -0.1499
     19 O         141.4594  139.9625  164.3883 O.2     1  UNL1       -0.1499
     20 C         138.7659  141.7296  160.9067 C.ar    1  UNL1        0.0504
     21 C         140.1801  141.2730  161.1098 C.ar    1  UNL1        0.0160
     22 C         140.6176  140.7604  162.4499 C.ar    1  UNL1        0.0215
     23 C         139.6409  140.7044  163.5868 C.ar    1  UNL1        0.1253
     24 C         138.2266  141.1610  163.3837 C.ar    1  UNL1        0.0215
     25 C         137.7891  141.6736  162.0436 C.ar    1  UNL1        0.0160
     26 C         137.5679  141.7908  157.1237 C.3     1  UNL1        0.0949
     27 C         138.0054  141.2781  158.4637 C.2     1  UNL1        0.2266
     28 O         138.1200  139.8014  158.7010 O.2     1  UNL1       -0.2748
     29 N         138.3284  142.2422  159.5666 N.am    1  UNL1       -0.2839
     30 H         138.2532  143.2114  159.4109 H       1  UNL1        0.1549
@<TRIPOS>BOND
     1    26    27    1
     2    27    28    2
     3    27    29   am
     4    29    20    1
     5    20    21   ar
     6    21    22   ar
     7    22    23   ar
     8    23    17    1
     9    17    18    2
    10    17    19    2
    11    17     1    1
    12     1     3    1
    13     3     4   ar
    14     4     5   ar
    15     5     6   ar
    16     6     7   ar
    17     7     8   ar
    18     8     9    1
    19     9    10    2
    20     9    11    1
    21    11    12   ar
    22    12    13   ar
    23    13    14   ar
    24    14    15   ar
    25    15    16   ar
    26    23    24   ar
    27    24    25   ar
    28    25    20   ar
    29     8     3   ar
    30    16    11   ar
    31    29    30    1
    32     1     2    1
@<TRIPOS>MOLECULE
*****
 30 32 0 0 0
SMALL
GASTEIGER

@<TRIPOS>ATOM
      1 N         139.7020  142.2913  166.1795 N.pl3   1  UNL1       -0.2149
      2 H         138.7509  142.2568  166.4313 H       1  UNL1        0.1737
      3 C         140.7387  141.6880  167.0802 C.ar    1  UNL1        0.0678
      4 C         141.8621  142.5337  167.6026 C.ar    1  UNL1        0.0160
      5 C         142.8988  141.9304  168.5033 C.ar    1  UNL1        0.0013
      6 C         142.8122  140.4814  168.8816 C.ar    1  UNL1        0.0002
      7 C         141.6888  139.6358  168.3592 C.ar    1  UNL1        0.0045
      8 C         140.6521  140.2391  167.4584 C.ar    1  UNL1        0.0535
      9 C         139.5288  139.3934  166.9360 C.2     1  UNL1        0.1968
     10 O         138.3408  139.1044  167.8050 O.2     1  UNL1       -0.2865
     11 C         139.5934  138.8368  165.5446 C.ar    1  UNL1        0.0390
     12 C         140.7474  137.9698  165.1365 C.ar    1  UNL1        0.0032
     13 C         140.8120  137.4131  163.7451 C.ar    1  UNL1        0.0001
     14 C         139.7227  137.7235  162.7618 C.ar    1  UNL1        0.0000
     15 C         138.5687  138.5906  163.1699 C.ar    1  UNL1        0.0001
     16 C         138.5041  139.1472  164.5613 C.ar    1  UNL1        0.0032
     17 S         140.1145  142.9471  164.8950 S.O2    1  UNL1        0.0736
     18 O         139.3346  144.1723  165.2702 O.2     1  UNL1       -0.1499
     19 O         140.8943  141.7219  164.5198 O.2     1  UNL1       -0.1499
     20 C         141.3517  144.9146  161.0417 C.ar    1  UNL1        0.0504
     21 C         141.9308  143.5850  161.4246 C.ar    1  UNL1        0.0160
     22 C         141.5184  142.9292  162.7090 C.ar    1  UNL1        0.0215
     23 C         140.5269  143.6029  163.6106 C.ar    1  UNL1        0.1253
     24 C         139.9478  144.9326  163.2277 C.ar    1  UNL1        0.0215
     25 C         140.3602  145.5884  161.9433 C.ar    1  UNL1        0.0160
     26 C         141.4179  145.9451  157.2098 C.3     1  UNL1        0.0949
     27 C         141.0055  145.2892  158.4942 C.2     1  UNL1        0.2266
     28 O         139.8344  144.3521  158.5156 O.2     1  UNL1       -0.2748
     29 N         141.7641  145.5705  159.7573 N.am    1  UNL1       -0.2839
     30 H         142.5327  146.1855  159.7433 H       1  UNL1        0.1549
@<TRIPOS>BOND
     1    26    27    1
     2    27    28    2
     3    27    29   am
     4    29    20    1
     5    20    21   ar
     6    21    22   ar
     7    22    23   ar
     8    23    17    1
     9    17    18    2
    10    17    19    2
    11    17     1    1
    12     1     3    1
    13     3     4   ar
    14     4     5   ar
    15     5     6   ar
    16     6     7   ar
    17     7     8   ar
    18     8     9    1
    19     9    10    2
    20     9    11    1
    21    11    12   ar
    22    12    13   ar
    23    13    14   ar
    24    14    15   ar
    25    15    16   ar
    26    23    24   ar
    27    24    25   ar
    28    25    20   ar
    29     8     3   ar
    30    16    11   ar
    31    29    30    1
    32     1     2    1
@<TRIPOS>MOLECULE
*****
 30 32 0 0 0
SMALL
GASTEIGER

@<TRIPOS>ATOM
      1 N         139.4812  139.5343  165.7893 N.pl3   1  UNL1       -0.2149
      2 H         138.9818  138.7028  165.6209 H       1  UNL1        0.1737
      3 C         140.2059  139.7239  167.0889 C.ar    1  UNL1        0.0678
      4 C         139.4369  140.0410  168.3371 C.ar    1  UNL1        0.0160
      5 C         140.1615  140.2305  169.6367 C.ar    1  UNL1        0.0013
      6 C         141.6552  140.1031  169.6880 C.ar    1  UNL1        0.0002
      7 C         142.4242  139.7860  168.4399 C.ar    1  UNL1        0.0045
      8 C         141.6996  139.5964  167.1402 C.ar    1  UNL1        0.0535
      9 C         142.4686  139.2794  165.8920 C.2     1  UNL1        0.1968
     10 O         142.2986  137.9469  165.2245 O.2     1  UNL1       -0.2865
     11 C         143.4077  140.2947  165.3114 C.ar    1  UNL1        0.0390
     12 C         143.2848  141.7384  165.6997 C.ar    1  UNL1        0.0032
     13 C         144.2239  142.7537  165.1190 C.ar    1  UNL1        0.0001
     14 C         145.2858  142.3255  164.1500 C.ar    1  UNL1        0.0000
     15 C         145.4086  140.8819  163.7617 C.ar    1  UNL1        0.0001
     16 C         144.4696  139.8665  164.3424 C.ar    1  UNL1        0.0032
     17 S         139.5175  140.6117  164.7463 S.O2    1  UNL1        0.0736
     18 O         139.7577  139.5777  163.6865 O.2     1  UNL1       -0.1499
     19 O         139.2772  141.6458  165.8060 O.2     1  UNL1       -0.1499
     20 C         139.6261  143.8438  161.6171 C.ar    1  UNL1        0.0504
     21 C         140.7863  143.6645  162.5508 C.ar    1  UNL1        0.0160
     22 C         140.7501  142.5872  163.5938 C.ar    1  UNL1        0.0215
     23 C         139.5537  141.6891  163.7032 C.ar    1  UNL1        0.1253
     24 C         138.3935  141.8684  162.7695 C.ar    1  UNL1        0.0215
     25 C         138.4297  142.9458  161.7265 C.ar    1  UNL1        0.0160
     26 C         140.2825  145.7142  158.1789 C.3     1  UNL1        0.0949
     27 C         140.2463  144.6368  159.2220 C.2     1  UNL1        0.2266
     28 O         140.7939  143.2749  158.9129 O.2     1  UNL1       -0.2748
     29 N         139.6624  144.9212  160.5741 N.am    1  UNL1       -0.2839
     30 H         139.3029  145.8150  160.7769 H       1  UNL1        0.1549
@<TRIPOS>BOND
     1    26    27    1
     2    27    28    2
     3    27    29   am
     4    29    20    1
     5    20    21   ar
     6    21    22   ar
     7    22    23   ar
     8    23    17    1
     9    17    18    2
    10    17    19    2
    11    17     1    1
    12     1     3    1
    13     3     4   ar
    14     4     5   ar
    15     5     6   ar
    16     6     7   ar
    17     7     8   ar
    18     8     9    1
    19     9    10    2
    20     9    11    1
    21    11    12   ar
    22    12    13   ar
    23    13    14   ar
    24    14    15   ar
    25    15    16   ar
    26    23    24   ar
    27    24    25   ar
    28    25    20   ar
    29     8     3   ar
    30    16    11   ar
    31    29    30    1
    32     1     2    1
@<TRIPOS>MOLECULE
*****
 30 32 0 0 0
SMALL
GASTEIGER

@<TRIPOS>ATOM
      1 N         141.6874  139.3681  164.8276 N.pl3   1  UNL1       -0.2149
      2 H         141.7833  138.4447  164.4998 H       1  UNL1        0.1737
      3 C         141.5302  139.6301  166.2961 C.ar    1  UNL1        0.0678
      4 C         142.6723  139.3650  167.2317 C.ar    1  UNL1        0.0160
      5 C         142.5151  139.6270  168.7003 C.ar    1  UNL1        0.0013
      6 C         141.2158  140.1542  169.2332 C.ar    1  UNL1        0.0002
      7 C         140.0738  140.4193  168.2976 C.ar    1  UNL1        0.0045
      8 C         140.2309  140.1573  166.8290 C.ar    1  UNL1        0.0535
      9 C         139.0889  140.4224  165.8934 C.2     1  UNL1        0.1968
     10 O         138.1092  139.3313  165.5778 O.2     1  UNL1       -0.2865
     11 C         138.9265  141.7786  165.2735 C.ar    1  UNL1        0.0390
     12 C         137.9171  141.9893  164.1842 C.ar    1  UNL1        0.0032
     13 C         137.7548  143.3456  163.5642 C.ar    1  UNL1        0.0001
     14 C         138.6017  144.4911  164.0337 C.ar    1  UNL1        0.0000
     15 C         139.6110  144.2804  165.1231 C.ar    1  UNL1        0.0001
     16 C         139.7734  142.9241  165.7430 C.ar    1  UNL1        0.0032
     17 S         141.6984  140.5129  163.8584 S.O2    1  UNL1        0.0736
     18 O         142.7079  141.2241  164.7100 O.2     1  UNL1       -0.1499
     19 O         140.6890  139.8017  163.0068 O.2     1  UNL1       -0.1499
     20 C         141.7315  143.9473  160.9509 C.ar    1  UNL1        0.0504
     21 C         142.7534  143.8828  162.0470 C.ar    1  UNL1        0.0160
     22 C         142.7424  142.7380  163.0162 C.ar    1  UNL1        0.0215
     23 C         141.7095  141.6577  162.8892 C.ar    1  UNL1        0.1253
     24 C         140.6876  141.7223  161.7931 C.ar    1  UNL1        0.0215
     25 C         140.6986  142.8671  160.8239 C.ar    1  UNL1        0.0160
     26 C         142.0588  145.9910  157.5647 C.3     1  UNL1        0.0949
     27 C         142.0477  144.8462  158.5339 C.2     1  UNL1        0.2266
     28 O         142.3419  143.4554  158.0551 O.2     1  UNL1       -0.2748
     29 N         141.7426  145.0922  159.9817 N.am    1  UNL1       -0.2839
     30 H         141.5495  146.0050  160.2959 H       1  UNL1        0.1549
@<TRIPOS>BOND
     1    26    27    1
     2    27    28    2
     3    27    29   am
     4    29    20    1
     5    20    21   ar
     6    21    22   ar
     7    22    23   ar
     8    23    17    1
     9    17    18    2
    10    17    19    2
    11    17     1    1
    12     1     3    1
    13     3     4   ar
    14     4     5   ar
    15     5     6   ar
    16     6     7   ar
    17     7     8   ar
    18     8     9    1
    19     9    10    2
    20     9    11    1
    21    11    12   ar
    22    12    13   ar
    23    13    14   ar
    24    14    15   ar
    25    15    16   ar
    26    23    24   ar
    27    24    25   ar
    28    25    20   ar
    29     8     3   ar
    30    16    11   ar
    31    29    30    1
    32     1     2    1
@<TRIPOS>MOLECULE
*****
 30 32 0 0 0
SMALL
GASTEIGER

@<TRIPOS>ATOM
      1 N         142.8052  144.6566  161.5309 N.pl3   1  UNL1       -0.2149
      2 H         143.3852  145.4454  161.4276 H       1  UNL1        0.1737
      3 C         142.0220  144.1430  160.3593 C.ar    1  UNL1        0.0678
      4 C         142.7220  143.4146  159.2504 C.ar    1  UNL1        0.0160
      5 C         141.9388  142.9010  158.0788 C.ar    1  UNL1        0.0013
      6 C         140.4555  143.1157  158.0159 C.ar    1  UNL1        0.0002
      7 C         139.7555  143.8441  159.1247 C.ar    1  UNL1        0.0045
      8 C         140.5388  144.3578  160.2964 C.ar    1  UNL1        0.0535
      9 C         139.8388  145.0861  161.4052 C.2     1  UNL1        0.1968
     10 O         139.9280  146.5808  161.4942 O.2     1  UNL1       -0.2865
     11 C         139.0495  144.3198  162.4250 C.ar    1  UNL1        0.0390
     12 C         138.4848  142.9738  162.0796 C.ar    1  UNL1        0.0032
     13 C         137.6955  142.2075  163.0994 C.ar    1  UNL1        0.0001
     14 C         137.4711  142.7872  164.4645 C.ar    1  UNL1        0.0000
     15 C         138.0358  144.1332  164.8098 C.ar    1  UNL1        0.0001
     16 C         138.8250  144.8995  163.7900 C.ar    1  UNL1        0.0032
     17 S         142.7048  143.9685  162.8599 S.O2    1  UNL1        0.0736
     18 O         142.9192  142.6436  162.1901 O.2     1  UNL1       -0.1499
     19 O         142.4904  145.2934  163.5297 O.2     1  UNL1       -0.1499
     20 C         142.4036  141.9039  166.8470 C.ar    1  UNL1        0.0504
     21 C         143.6466  142.6623  166.4871 C.ar    1  UNL1        0.0160
     22 C         143.7470  143.3505  165.1581 C.ar    1  UNL1        0.0215
     23 C         142.6044  143.2803  164.1889 C.ar    1  UNL1        0.1253
     24 C         141.3613  142.5219  164.5488 C.ar    1  UNL1        0.0215
     25 C         141.2609  141.8337  165.8778 C.ar    1  UNL1        0.0160
     26 C         142.5085  139.0634  169.6165 C.3     1  UNL1        0.0949
     27 C         142.6089  139.7515  168.2874 C.2     1  UNL1        0.2266
     28 O         143.0152  138.9754  167.0698 O.2     1  UNL1       -0.2748
     29 N         142.3031  141.2158  168.1760 N.am    1  UNL1       -0.2839
     30 H         142.0365  141.7251  168.9752 H       1  UNL1        0.1549
@<TRIPOS>BOND
     1    26    27    1
     2    27    28    2
     3    27    29   am
     4    29    20    1
     5    20    21   ar
     6    21    22   ar
     7    22    23   ar
     8    23    17    1
     9    17    18    2
    10    17    19    2
    11    17     1    1
    12     1     3    1
    13     3     4   ar
    14     4     5   ar
    15     5     6   ar
    16     6     7   ar
    17     7     8   ar
    18     8     9    1
    19     9    10    2
    20     9    11    1
    21    11    12   ar
    22    12    13   ar
    23    13    14   ar
    24    14    15   ar
    25    15    16   ar
    26    23    24   ar
    27    24    25   ar
    28    25    20   ar
    29     8     3   ar
    30    16    11   ar
    31    29    30    1
    32     1     2    1
