@<TRIPOS>MOLECULE
*****
 35 38 0 0 0
SMALL
GASTEIGER

@<TRIPOS>ATOM
      1 N         139.1212  140.8366  164.7469 N.am    1  UNL1       -0.2679
      2 C         139.3950  140.0071  165.9662 C.2     1  UNL1        0.2495
      3 O         138.5752  138.7808  166.2386 O.2     1  UNL1       -0.2699
      4 C         140.4885  140.4038  166.9133 C.ar    1  UNL1        0.0542
      5 C         141.7452  139.5886  166.9917 C.ar    1  UNL1        0.0061
      6 C         142.8386  139.9853  167.9387 C.ar    1  UNL1        0.0198
      7 C         142.6754  141.1973  168.8073 C.ar    1  UNL1        0.0892
      8 N         143.5747  141.8286  169.8286 N.ar    1  UNL1       -0.2245
      9 C         142.8737  143.0341  170.3813 C.ar    1  UNL1        0.1567
     10 N         143.4108  143.9629  171.4296 N.pl3   1  UNL1       -0.3375
     11 S         141.5413  143.1477  169.7017 S.2     1  UNL1       -0.0520
     12 C         141.4188  142.0125  168.7289 C.ar    1  UNL1        0.0498
     13 C         140.3253  141.6157  167.7819 C.ar    1  UNL1        0.0126
     14 H         144.3014  143.8043  171.8182 H       1  UNL1        0.1442
     15 H         142.8728  144.7311  171.7290 H       1  UNL1        0.1442
     16 C         138.0277  140.4399  163.7998 C.3     1  UNL1        0.1209
     17 C         139.0543  138.6589  159.7968 C.ar    1  UNL1        0.1724
     18 C         139.6713  138.1024  161.0457 C.ar    1  UNL1        0.0398
     19 C         139.3291  138.6961  162.3801 C.ar    1  UNL1        0.0007
     20 C         138.3699  139.8462  162.4655 C.ar    1  UNL1        0.0009
     21 C         137.7530  140.4027  161.2166 C.ar    1  UNL1        0.0374
     22 C         138.0952  139.8090  159.8822 C.ar    1  UNL1        0.1721
     23 C         140.6033  138.5482  157.7140 C.3     1  UNL1        0.2526
     24 O         139.3965  138.0653  158.4624 O.3     1  UNL1       -0.4684
     25 O         137.4783  140.3655  158.6334 O.3     1  UNL1       -0.4684
     26 C         138.0659  141.5839  157.9851 C.3     1  UNL1        0.2526
     27 C         139.9410  142.0629  164.4745 C.3     1  UNL1        0.1208
     28 C         141.4246  141.9466  164.2857 C.ar    1  UNL1       -0.0014
     29 C         141.9855  140.8822  163.3899 C.ar    1  UNL1       -0.0017
     30 C         143.4689  140.7659  163.2011 C.ar    1  UNL1        0.0120
     31 C         144.3916  141.7140  163.9081 C.ar    1  UNL1        0.0682
     32 CL        145.8751  141.5977  163.7192 Cl      1  UNL1       -0.0814
     33 C         143.8307  142.7784  164.8039 C.ar    1  UNL1        0.0679
     34 CL        144.7534  143.7265  165.5109 Cl      1  UNL1       -0.0814
     35 C         142.3472  142.8947  164.9927 C.ar    1  UNL1        0.0096
@<TRIPOS>BOND
     1    23    24    1
     2    24    17    1
     3    17    18   ar
     4    18    19   ar
     5    19    20   ar
     6    20    16    1
     7    16     1    1
     8     1    27    1
     9    27    28    1
    10    28    29   ar
    11    29    30   ar
    12    30    31   ar
    13    31    32    1
    14    31    33   ar
    15    33    34    1
    16    33    35   ar
    17     1     2   am
    18     2     3    2
    19     2     4    1
    20     4     5   ar
    21     5     6   ar
    22     6     7   ar
    23     7     8   ar
    24     8     9   ar
    25     9    10    1
    26     9    11   ar
    27    11    12   ar
    28    12    13   ar
    29    20    21   ar
    30    21    22   ar
    31    22    25    1
    32    25    26    1
    33    22    17   ar
    34    35    28   ar
    35    13     4   ar
    36    12     7   ar
    37    10    14    1
    38    10    15    1
@<TRIPOS>MOLECULE
*****
 35 38 0 0 0
SMALL
GASTEIGER

@<TRIPOS>ATOM
      1 N         138.8391  140.0994  164.6764 N.am    1  UNL1       -0.2679
      2 C         139.7435  139.4163  165.6589 C.2     1  UNL1        0.2495
      3 O         140.3491  138.0861  165.3216 O.2     1  UNL1       -0.2699
      4 C         140.0424  140.0635  166.9787 C.ar    1  UNL1        0.0542
      5 C         139.1419  139.8216  168.1537 C.ar    1  UNL1        0.0061
      6 C         139.4408  140.4688  169.4734 C.ar    1  UNL1        0.0198
      7 C         140.6403  141.3578  169.6182 C.ar    1  UNL1        0.0892
      8 N         141.1847  142.1266  170.7856 N.ar    1  UNL1       -0.2245
      9 C         142.4217  142.8435  170.3321 C.ar    1  UNL1        0.1567
     10 N         143.2869  143.7305  171.1777 N.pl3   1  UNL1       -0.3375
     11 S         142.6418  142.5179  168.8845 S.2     1  UNL1       -0.0520
     12 C         141.5408  141.5997  168.4433 C.ar    1  UNL1        0.0498
     13 C         141.2419  140.9525  167.1236 C.ar    1  UNL1        0.0126
     14 H         143.0589  143.8841  172.1230 H       1  UNL1        0.1442
     15 H         144.0826  144.1590  170.7873 H       1  UNL1        0.1442
     16 C         138.5402  139.4523  163.3565 C.3     1  UNL1        0.1209
     17 C         141.4029  139.9290  159.9174 C.ar    1  UNL1        0.1724
     18 C         140.3400  140.9601  160.1570 C.ar    1  UNL1        0.0398
     19 C         139.3858  140.8012  161.3034 C.ar    1  UNL1        0.0007
     20 C         139.4944  139.6112  162.2101 C.ar    1  UNL1        0.0009
     21 C         140.5572  138.5801  161.9705 C.ar    1  UNL1        0.0374
     22 C         141.5114  138.7390  160.8241 C.ar    1  UNL1        0.1721
     23 C         143.7039  140.7084  158.9967 C.3     1  UNL1        0.2526
     24 O         142.3571  140.0879  158.7710 O.3     1  UNL1       -0.4684
     25 O         142.5742  137.7080  160.5845 O.3     1  UNL1       -0.4684
     26 C         143.8765  137.7873  161.3247 C.3     1  UNL1        0.2526
     27 C         138.2335  141.4297  165.0136 C.3     1  UNL1        0.1208
     28 C         138.6686  142.6607  164.2751 C.ar    1  UNL1       -0.0014
     29 C         137.7245  143.3399  163.3278 C.ar    1  UNL1       -0.0017
     30 C         138.1596  144.5709  162.5893 C.ar    1  UNL1        0.0120
     31 C         139.5388  145.1226  162.7981 C.ar    1  UNL1        0.0682
     32 CL        139.9739  146.3536  162.0596 Cl      1  UNL1       -0.0814
     33 C         140.4828  144.4433  163.7454 C.ar    1  UNL1        0.0679
     34 CL        141.8620  144.9950  163.9541 Cl      1  UNL1       -0.0814
     35 C         140.0477  143.2124  164.4838 C.ar    1  UNL1        0.0096
@<TRIPOS>BOND
     1    23    24    1
     2    24    17    1
     3    17    18   ar
     4    18    19   ar
     5    19    20   ar
     6    20    16    1
     7    16     1    1
     8     1    27    1
     9    27    28    1
    10    28    29   ar
    11    29    30   ar
    12    30    31   ar
    13    31    32    1
    14    31    33   ar
    15    33    34    1
    16    33    35   ar
    17     1     2   am
    18     2     3    2
    19     2     4    1
    20     4     5   ar
    21     5     6   ar
    22     6     7   ar
    23     7     8   ar
    24     8     9   ar
    25     9    10    1
    26     9    11   ar
    27    11    12   ar
    28    12    13   ar
    29    20    21   ar
    30    21    22   ar
    31    22    25    1
    32    25    26    1
    33    22    17   ar
    34    35    28   ar
    35    13     4   ar
    36    12     7   ar
    37    10    14    1
    38    10    15    1
@<TRIPOS>MOLECULE
*****
 35 38 0 0 0
SMALL
GASTEIGER

@<TRIPOS>ATOM
      1 N         141.4351  138.8709  165.0507 N.am    1  UNL1       -0.2679
      2 C         142.3290  139.0521  166.2415 C.2     1  UNL1        0.2495
      3 O         143.4738  138.1102  166.4702 O.2     1  UNL1       -0.2699
      4 C         142.0782  140.1753  167.2037 C.ar    1  UNL1        0.0542
      5 C         143.0624  141.3017  167.3146 C.ar    1  UNL1        0.0061
      6 C         142.8116  142.4248  168.2767 C.ar    1  UNL1        0.0198
      7 C         141.5765  142.4214  169.1279 C.ar    1  UNL1        0.0892
      8 N         141.0647  143.3844  170.1579 N.ar    1  UNL1       -0.2245
      9 C         139.7642  142.8531  170.6835 C.ar    1  UNL1        0.1567
     10 N         138.9062  143.4996  171.7305 N.pl3   1  UNL1       -0.3375
     11 S         139.4722  141.5617  169.9784 S.2     1  UNL1       -0.0520
     12 C         140.5922  141.2950  169.0170 C.ar    1  UNL1        0.0498
     13 C         140.8431  140.1719  168.0548 C.ar    1  UNL1        0.0126
     14 H         139.1841  144.3520  172.1371 H       1  UNL1        0.1442
     15 H         138.0652  143.0714  172.0109 H       1  UNL1        0.1442
     16 C         141.6859  137.7477  164.0886 C.3     1  UNL1        0.1209
     17 C         143.0903  138.6385  159.9071 C.ar    1  UNL1        0.1724
     18 C         144.0692  138.6415  161.0437 C.ar    1  UNL1        0.0398
     19 C         143.6011  138.3446  162.4375 C.ar    1  UNL1        0.0007
     20 C         142.1540  138.0446  162.6948 C.ar    1  UNL1        0.0009
     21 C         141.1752  138.0416  161.5582 C.ar    1  UNL1        0.0374
     22 C         141.6433  138.3385  160.1644 C.ar    1  UNL1        0.1721
     23 C         143.3959  140.3141  157.9453 C.3     1  UNL1        0.2526
     24 O         143.5584  138.9354  158.5133 O.3     1  UNL1       -0.4684
     25 O         140.6644  138.3355  159.0279 O.3     1  UNL1       -0.4684
     26 C         139.6440  139.4291  158.9139 C.3     1  UNL1        0.2526
     27 C         140.2903  139.8127  164.8220 C.3     1  UNL1        0.1208
     28 C         140.5569  141.2369  164.4338 C.ar    1  UNL1       -0.0014
     29 C         141.6955  141.5628  163.5132 C.ar    1  UNL1       -0.0017
     30 C         141.9620  142.9869  163.1250 C.ar    1  UNL1        0.0120
     31 C         141.0900  144.0852  163.6573 C.ar    1  UNL1        0.0682
     32 CL        141.3566  145.5094  163.2690 Cl      1  UNL1       -0.0814
     33 C         139.9514  143.7593  164.5778 C.ar    1  UNL1        0.0679
     34 CL        139.0794  144.8576  165.1101 Cl      1  UNL1       -0.0814
     35 C         139.6849  142.3352  164.9661 C.ar    1  UNL1        0.0096
@<TRIPOS>BOND
     1    23    24    1
     2    24    17    1
     3    17    18   ar
     4    18    19   ar
     5    19    20   ar
     6    20    16    1
     7    16     1    1
     8     1    27    1
     9    27    28    1
    10    28    29   ar
    11    29    30   ar
    12    30    31   ar
    13    31    32    1
    14    31    33   ar
    15    33    34    1
    16    33    35   ar
    17     1     2   am
    18     2     3    2
    19     2     4    1
    20     4     5   ar
    21     5     6   ar
    22     6     7   ar
    23     7     8   ar
    24     8     9   ar
    25     9    10    1
    26     9    11   ar
    27    11    12   ar
    28    12    13   ar
    29    20    21   ar
    30    21    22   ar
    31    22    25    1
    32    25    26    1
    33    22    17   ar
    34    35    28   ar
    35    13     4   ar
    36    12     7   ar
    37    10    14    1
    38    10    15    1
@<TRIPOS>MOLECULE
*****
 35 38 0 0 0
SMALL
GASTEIGER

@<TRIPOS>ATOM
      1 N         138.9410  139.9575  164.7850 N.am    1  UNL1       -0.2679
      2 C         139.8971  139.3674  165.7788 C.2     1  UNL1        0.2495
      3 O         140.5784  138.0645  165.4818 O.2     1  UNL1       -0.2699
      4 C         140.1718  140.0802  167.0698 C.ar    1  UNL1        0.0542
      5 C         139.2086  139.9589  168.2133 C.ar    1  UNL1        0.0061
      6 C         139.4834  140.6717  169.5041 C.ar    1  UNL1        0.0198
      7 C         140.7213  141.5058  169.6515 C.ar    1  UNL1        0.0892
      8 N         141.2543  142.3178  170.7947 N.ar    1  UNL1       -0.2245
      9 C         142.5468  142.9409  170.3577 C.ar    1  UNL1        0.1567
     10 N         143.4202  143.8341  171.1881 N.pl3   1  UNL1       -0.3375
     11 S         142.8127  142.5141  168.9445 S.2     1  UNL1       -0.0520
     12 C         141.6845  141.6272  168.5081 C.ar    1  UNL1        0.0498
     13 C         141.4097  140.9144  167.2172 C.ar    1  UNL1        0.0126
     14 H         143.1594  144.0582  172.1106 H       1  UNL1        0.1442
     15 H         144.2543  144.1961  170.8107 H       1  UNL1        0.1442
     16 C         138.6663  139.2447  163.4941 C.3     1  UNL1        0.1209
     17 C         141.5297  139.6502  160.0464 C.ar    1  UNL1        0.1724
     18 C         141.4368  138.3540  160.7957 C.ar    1  UNL1        0.0398
     19 C         140.4823  138.2188  161.9449 C.ar    1  UNL1        0.0007
     20 C         139.6207  139.3798  162.3449 C.ar    1  UNL1        0.0009
     21 C         139.7137  140.6759  161.5956 C.ar    1  UNL1        0.0374
     22 C         140.6682  140.8111  160.4464 C.ar    1  UNL1        0.1721
     23 C         143.8701  140.3092  159.1310 C.3     1  UNL1        0.2526
     24 O         142.4842  139.7854  158.8972 O.3     1  UNL1       -0.4684
     25 O         140.7611  142.1072  159.6971 O.3     1  UNL1       -0.4684
     26 C         141.6270  143.2151  160.2195 C.3     1  UNL1        0.2526
     27 C         138.2596  141.2604  165.0821 C.3     1  UNL1        0.1208
     28 C         138.6609  142.5023  164.3427 C.ar    1  UNL1       -0.0014
     29 C         137.6863  143.1752  163.4223 C.ar    1  UNL1       -0.0017
     30 C         138.0876  144.4170  162.6830 C.ar    1  UNL1        0.0120
     31 C         139.4636  144.9860  162.8641 C.ar    1  UNL1        0.0682
     32 CL        139.8650  146.2280  162.1247 Cl      1  UNL1       -0.0814
     33 C         140.4383  144.3131  163.7844 C.ar    1  UNL1        0.0679
     34 CL        141.8144  144.8821  163.9655 Cl      1  UNL1       -0.0814
     35 C         140.0370  143.0713  164.5238 C.ar    1  UNL1        0.0096
@<TRIPOS>BOND
     1    23    24    1
     2    24    17    1
     3    17    18   ar
     4    18    19   ar
     5    19    20   ar
     6    20    16    1
     7    16     1    1
     8     1    27    1
     9    27    28    1
    10    28    29   ar
    11    29    30   ar
    12    30    31   ar
    13    31    32    1
    14    31    33   ar
    15    33    34    1
    16    33    35   ar
    17     1     2   am
    18     2     3    2
    19     2     4    1
    20     4     5   ar
    21     5     6   ar
    22     6     7   ar
    23     7     8   ar
    24     8     9   ar
    25     9    10    1
    26     9    11   ar
    27    11    12   ar
    28    12    13   ar
    29    20    21   ar
    30    21    22   ar
    31    22    25    1
    32    25    26    1
    33    22    17   ar
    34    35    28   ar
    35    13     4   ar
    36    12     7   ar
    37    10    14    1
    38    10    15    1
@<TRIPOS>MOLECULE
*****
 35 38 0 0 0
SMALL
GASTEIGER

@<TRIPOS>ATOM
      1 N         142.7788  141.9501  164.1055 N.am    1  UNL1       -0.2679
      2 C         143.0726  143.3730  163.7327 C.2     1  UNL1        0.2495
      3 O         144.2414  144.0836  164.3483 O.2     1  UNL1       -0.2699
      4 C         142.1976  144.0853  162.7442 C.ar    1  UNL1        0.0542
      5 C         141.0854  144.9683  163.2270 C.ar    1  UNL1        0.0061
      6 C         140.2105  145.6806  162.2385 C.ar    1  UNL1        0.0198
      7 C         140.4478  145.5099  160.7673 C.ar    1  UNL1        0.0892
      8 N         139.7539  146.0802  159.5658 N.ar    1  UNL1       -0.2245
      9 C         140.4374  145.5496  158.3405 C.ar    1  UNL1        0.1567
     10 N         140.0693  145.8623  156.9204 N.pl3   1  UNL1       -0.3375
     11 S         141.5536  144.6514  158.7847 S.2     1  UNL1       -0.0520
     12 C         141.5601  144.6269  160.2845 C.ar    1  UNL1        0.0498
     13 C         142.4350  143.9146  161.2730 C.ar    1  UNL1        0.0126
     14 H         139.3163  146.4668  156.7287 H       1  UNL1        0.1442
     15 H         140.5807  145.4629  156.1800 H       1  UNL1        0.1442
     16 C         143.6538  141.2377  165.0940 C.3     1  UNL1        0.1209
     17 C         142.2007  140.5466  169.2965 C.ar    1  UNL1        0.1724
     18 C         142.4849  139.3783  168.3995 C.ar    1  UNL1        0.0398
     19 C         142.9693  139.6087  166.9987 C.ar    1  UNL1        0.0007
     20 C         143.1694  141.0073  166.4948 C.ar    1  UNL1        0.0009
     21 C         142.8852  142.1755  167.3917 C.ar    1  UNL1        0.0374
     22 C         142.4008  141.9451  168.7926 C.ar    1  UNL1        0.1721
     23 C         140.2599  140.0677  170.9559 C.3     1  UNL1        0.2526
     24 O         141.7163  140.3162  170.6973 O.3     1  UNL1       -0.4684
     25 O         142.1166  143.1133  169.6895 O.3     1  UNL1       -0.4684
     26 C         140.7154  143.6314  169.8250 C.3     1  UNL1        0.2526
     27 C         141.6100  141.2395  163.4899 C.3     1  UNL1        0.1208
     28 C         140.5985  140.5612  164.3657 C.ar    1  UNL1       -0.0014
     29 C         139.8788  141.3429  165.4244 C.ar    1  UNL1       -0.0017
     30 C         138.8674  140.6646  166.3002 C.ar    1  UNL1        0.0120
     31 C         138.5757  139.2047  166.1172 C.ar    1  UNL1        0.0682
     32 CL        137.5643  138.5264  166.9930 Cl      1  UNL1       -0.0814
     33 C         139.2954  138.4230  165.0585 C.ar    1  UNL1        0.0679
     34 CL        139.0038  136.9631  164.8755 Cl      1  UNL1       -0.0814
     35 C         140.3068  139.1013  164.1827 C.ar    1  UNL1        0.0096
@<TRIPOS>BOND
     1    23    24    1
     2    24    17    1
     3    17    18   ar
     4    18    19   ar
     5    19    20   ar
     6    20    16    1
     7    16     1    1
     8     1    27    1
     9    27    28    1
    10    28    29   ar
    11    29    30   ar
    12    30    31   ar
    13    31    32    1
    14    31    33   ar
    15    33    34    1
    16    33    35   ar
    17     1     2   am
    18     2     3    2
    19     2     4    1
    20     4     5   ar
    21     5     6   ar
    22     6     7   ar
    23     7     8   ar
    24     8     9   ar
    25     9    10    1
    26     9    11   ar
    27    11    12   ar
    28    12    13   ar
    29    20    21   ar
    30    21    22   ar
    31    22    25    1
    32    25    26    1
    33    22    17   ar
    34    35    28   ar
    35    13     4   ar
    36    12     7   ar
    37    10    14    1
    38    10    15    1
@<TRIPOS>MOLECULE
*****
 35 38 0 0 0
SMALL
GASTEIGER

@<TRIPOS>ATOM
      1 N         140.0266  138.6268  165.6184 N.am    1  UNL1       -0.2679
      2 C         139.0475  139.2238  166.5853 C.2     1  UNL1        0.2495
      3 O         137.5739  139.0621  166.3565 O.2     1  UNL1       -0.2699
      4 C         139.5421  139.9825  167.7811 C.ar    1  UNL1        0.0542
      5 C         138.8113  139.8830  169.0872 C.ar    1  UNL1        0.0061
      6 C         139.3059  140.6417  170.2829 C.ar    1  UNL1        0.0198
      7 C         140.5312  141.4998  170.1725 C.ar    1  UNL1        0.0892
      8 N         141.2498  142.3568  171.1722 N.ar    1  UNL1       -0.2245
      9 C         142.4247  142.9859  170.4838 C.ar    1  UNL1        0.1567
     10 N         143.4177  143.9194  171.1104 N.pl3   1  UNL1       -0.3375
     11 S         142.4322  142.5177  169.0588 S.2     1  UNL1       -0.0520
     12 C         141.2620  141.5992  168.8664 C.ar    1  UNL1        0.0498
     13 C         140.7674  140.8405  167.6707 C.ar    1  UNL1        0.0126
     14 H         143.3282  144.1692  172.0585 H       1  UNL1        0.1442
     15 H         144.1590  144.2822  170.5736 H       1  UNL1        0.1442
     16 C         139.5320  137.8681  164.4225 C.3     1  UNL1        0.1209
     17 C         138.4101  140.0743  160.6644 C.ar    1  UNL1        0.1724
     18 C         139.1783  138.7888  160.5784 C.ar    1  UNL1        0.0398
     19 C         139.5522  138.0533  161.8311 C.ar    1  UNL1        0.0007
     20 C         139.1580  138.6035  163.1698 C.ar    1  UNL1        0.0009
     21 C         138.3899  139.8890  163.2557 C.ar    1  UNL1        0.0374
     22 C         138.0160  140.6244  162.0030 C.ar    1  UNL1        0.1721
     23 C         138.8168  142.0195  158.9908 C.3     1  UNL1        0.2526
     24 O         138.0362  140.8098  159.4117 O.3     1  UNL1       -0.4684
     25 O         137.2478  141.9099  162.0889 O.3     1  UNL1       -0.4684
     26 C         137.8763  143.1186  162.7169 C.3     1  UNL1        0.2526
     27 C         141.5002  138.7884  165.8471 C.3     1  UNL1        0.1208
     28 C         142.3392  139.5214  164.8426 C.ar    1  UNL1       -0.0014
     29 C         143.7015  139.0061  164.4845 C.ar    1  UNL1       -0.0017
     30 C         144.5404  139.7390  163.4801 C.ar    1  UNL1        0.0120
     31 C         144.0169  140.9873  162.8337 C.ar    1  UNL1        0.0682
     32 CL        144.8559  141.7203  161.8292 Cl      1  UNL1       -0.0814
     33 C         142.6546  141.5026  163.1919 C.ar    1  UNL1        0.0679
     34 CL        142.1311  142.7509  162.5455 Cl      1  UNL1       -0.0814
     35 C         141.8157  140.7697  164.1963 C.ar    1  UNL1        0.0096
@<TRIPOS>BOND
     1    23    24    1
     2    24    17    1
     3    17    18   ar
     4    18    19   ar
     5    19    20   ar
     6    20    16    1
     7    16     1    1
     8     1    27    1
     9    27    28    1
    10    28    29   ar
    11    29    30   ar
    12    30    31   ar
    13    31    32    1
    14    31    33   ar
    15    33    34    1
    16    33    35   ar
    17     1     2   am
    18     2     3    2
    19     2     4    1
    20     4     5   ar
    21     5     6   ar
    22     6     7   ar
    23     7     8   ar
    24     8     9   ar
    25     9    10    1
    26     9    11   ar
    27    11    12   ar
    28    12    13   ar
    29    20    21   ar
    30    21    22   ar
    31    22    25    1
    32    25    26    1
    33    22    17   ar
    34    35    28   ar
    35    13     4   ar
    36    12     7   ar
    37    10    14    1
    38    10    15    1
@<TRIPOS>MOLECULE
*****
 35 38 0 0 0
SMALL
GASTEIGER

@<TRIPOS>ATOM
      1 N         139.0011  139.2655  163.8895 N.am    1  UNL1       -0.2679
      2 C         140.1853  139.1737  164.8055 C.2     1  UNL1        0.2495
      3 O         141.1709  138.0540  164.6474 O.2     1  UNL1       -0.2699
      4 C         140.3841  140.2018  165.8797 C.ar    1  UNL1        0.0542
      5 C         141.1562  141.4537  165.5859 C.ar    1  UNL1        0.0061
      6 C         141.3550  142.4817  166.6601 C.ar    1  UNL1        0.0198
      7 C         140.7816  142.2576  168.0279 C.ar    1  UNL1        0.0892
      8 N         140.8146  143.0860  169.2781 N.ar    1  UNL1       -0.2245
      9 C         140.0628  142.3459  170.3444 C.ar    1  UNL1        0.1567
     10 N         139.8465  142.8100  171.7544 N.pl3   1  UNL1       -0.3375
     11 S         139.5653  141.0602  169.7533 S.2     1  UNL1       -0.0520
     12 C         140.0095  141.0056  168.3217 C.ar    1  UNL1        0.0498
     13 C         139.8108  139.9777  167.2475 C.ar    1  UNL1        0.0126
     14 H         140.2144  143.6740  172.0501 H       1  UNL1        0.1442
     15 H         139.3367  142.2507  172.3840 H       1  UNL1        0.1442
     16 C         138.8023  138.2375  162.8153 C.3     1  UNL1        0.1209
     17 C         140.9891  138.6214  158.9012 C.ar    1  UNL1        0.1724
     18 C         139.5239  138.9344  158.9756 C.ar    1  UNL1        0.0398
     19 C         138.7950  138.8064  160.2803 C.ar    1  UNL1        0.0007
     20 C         139.5312  138.3655  161.5106 C.ar    1  UNL1        0.0009
     21 C         140.9963  138.0525  161.4362 C.ar    1  UNL1        0.0374
     22 C         141.7252  138.1805  160.1315 C.ar    1  UNL1        0.1721
     23 C         141.9070  137.5457  156.7218 C.3     1  UNL1        0.2526
     24 O         141.7180  138.7494  157.5965 O.3     1  UNL1       -0.4684
     25 O         143.1903  137.8675  160.0570 O.3     1  UNL1       -0.4684
     26 C         144.0229  137.8736  161.3048 C.3     1  UNL1        0.2526
     27 C         138.0156  140.3852  164.0476 C.3     1  UNL1        0.1208
     28 C         138.3639  141.7640  163.5704 C.ar    1  UNL1       -0.0014
     29 C         137.8997  142.9640  164.3412 C.ar    1  UNL1       -0.0017
     30 C         138.2481  144.3427  163.8639 C.ar    1  UNL1        0.0120
     31 C         139.0607  144.5213  162.6158 C.ar    1  UNL1        0.0682
     32 CL        139.4091  145.9000  162.1385 Cl      1  UNL1       -0.0814
     33 C         139.5250  143.3212  161.8450 C.ar    1  UNL1        0.0679
     34 CL        140.3376  143.4998  160.5969 Cl      1  UNL1       -0.0814
     35 C         139.1766  141.9425  162.3223 C.ar    1  UNL1        0.0096
@<TRIPOS>BOND
     1    23    24    1
     2    24    17    1
     3    17    18   ar
     4    18    19   ar
     5    19    20   ar
     6    20    16    1
     7    16     1    1
     8     1    27    1
     9    27    28    1
    10    28    29   ar
    11    29    30   ar
    12    30    31   ar
    13    31    32    1
    14    31    33   ar
    15    33    34    1
    16    33    35   ar
    17     1     2   am
    18     2     3    2
    19     2     4    1
    20     4     5   ar
    21     5     6   ar
    22     6     7   ar
    23     7     8   ar
    24     8     9   ar
    25     9    10    1
    26     9    11   ar
    27    11    12   ar
    28    12    13   ar
    29    20    21   ar
    30    21    22   ar
    31    22    25    1
    32    25    26    1
    33    22    17   ar
    34    35    28   ar
    35    13     4   ar
    36    12     7   ar
    37    10    14    1
    38    10    15    1
@<TRIPOS>MOLECULE
*****
 35 38 0 0 0
SMALL
GASTEIGER

@<TRIPOS>ATOM
      1 N         143.8593  141.5293  164.2419 N.am    1  UNL1       -0.2679
      2 C         143.4568  140.1831  164.7670 C.2     1  UNL1        0.2495
      3 O         144.1069  138.9431  164.2287 O.2     1  UNL1       -0.2699
      4 C         142.4041  140.0769  165.8304 C.ar    1  UNL1        0.0542
      5 C         140.9659  139.8928  165.4462 C.ar    1  UNL1        0.0061
      6 C         139.9133  139.7866  166.5096 C.ar    1  UNL1        0.0198
      7 C         140.2990  139.8645  167.9571 C.ar    1  UNL1        0.0892
      8 N         139.4882  139.7920  169.2171 N.ar    1  UNL1       -0.2245
      9 C         140.4255  139.9313  170.3799 C.ar    1  UNL1        0.1567
     10 N         140.0404  139.9150  171.8296 N.pl3   1  UNL1       -0.3375
     11 S         141.8154  140.0899  169.8386 S.2     1  UNL1       -0.0520
     12 C         141.7372  140.0486  168.3412 C.ar    1  UNL1        0.0498
     13 C         142.7898  140.1548  167.2778 C.ar    1  UNL1        0.0126
     14 H         139.0965  139.8050  172.0870 H       1  UNL1        0.1442
     15 H         140.7316  140.0142  172.5236 H       1  UNL1        0.1442
     16 C         144.9120  141.6355  163.1785 C.3     1  UNL1        0.1209
     17 C         143.7833  141.2014  158.8440 C.ar    1  UNL1        0.1724
     18 C         144.1442  142.5497  159.3937 C.ar    1  UNL1        0.0398
     19 C         144.5204  142.6944  160.8385 C.ar    1  UNL1        0.0007
     20 C         144.5358  141.4908  161.7337 C.ar    1  UNL1        0.0009
     21 C         144.1749  140.1426  161.1840 C.ar    1  UNL1        0.0374
     22 C         143.7987  139.9980  159.7392 C.ar    1  UNL1        0.1721
     23 C         144.4498  140.6877  156.3860 C.3     1  UNL1        0.2526
     24 O         143.4071  141.0568  157.3992 O.3     1  UNL1       -0.4684
     25 O         143.4378  138.6498  159.1895 O.3     1  UNL1       -0.4684
     26 C         142.9526  137.5697  160.1105 C.3     1  UNL1        0.2526
     27 C         143.2092  142.7693  164.7802 C.3     1  UNL1        0.1208
     28 C         141.8218  143.1381  164.3450 C.ar    1  UNL1       -0.0014
     29 C         140.7734  143.4540  165.3701 C.ar    1  UNL1       -0.0017
     30 C         139.3861  143.8228  164.9350 C.ar    1  UNL1        0.0120
     31 C         139.0472  143.8755  163.4747 C.ar    1  UNL1        0.0682
     32 CL        137.6598  144.2443  163.0396 Cl      1  UNL1       -0.0814
     33 C         140.0957  143.5595  162.4496 C.ar    1  UNL1        0.0679
     34 CL        139.7568  143.6123  160.9893 Cl      1  UNL1       -0.0814
     35 C         141.4830  143.1908  162.8848 C.ar    1  UNL1        0.0096
@<TRIPOS>BOND
     1    23    24    1
     2    24    17    1
     3    17    18   ar
     4    18    19   ar
     5    19    20   ar
     6    20    16    1
     7    16     1    1
     8     1    27    1
     9    27    28    1
    10    28    29   ar
    11    29    30   ar
    12    30    31   ar
    13    31    32    1
    14    31    33   ar
    15    33    34    1
    16    33    35   ar
    17     1     2   am
    18     2     3    2
    19     2     4    1
    20     4     5   ar
    21     5     6   ar
    22     6     7   ar
    23     7     8   ar
    24     8     9   ar
    25     9    10    1
    26     9    11   ar
    27    11    12   ar
    28    12    13   ar
    29    20    21   ar
    30    21    22   ar
    31    22    25    1
    32    25    26    1
    33    22    17   ar
    34    35    28   ar
    35    13     4   ar
    36    12     7   ar
    37    10    14    1
    38    10    15    1
@<TRIPOS>MOLECULE
*****
 35 38 0 0 0
SMALL
GASTEIGER

@<TRIPOS>ATOM
      1 N         138.8002  139.3017  164.0715 N.am    1  UNL1       -0.2679
      2 C         139.6678  138.6766  165.1234 C.2     1  UNL1        0.2495
      3 O         140.2085  137.2917  164.9240 O.2     1  UNL1       -0.2699
      4 C         139.9948  139.4365  166.3747 C.ar    1  UNL1        0.0542
      5 C         139.0071  139.4847  167.5025 C.ar    1  UNL1        0.0061
      6 C         139.3342  140.2446  168.7538 C.ar    1  UNL1        0.0198
      7 C         140.6489  140.9561  168.8772 C.ar    1  UNL1        0.0892
      8 N         141.2451  141.7790  169.9806 N.ar    1  UNL1       -0.2245
      9 C         142.6013  142.2393  169.5347 C.ar    1  UNL1        0.1567
     10 N         143.5492  143.0888  170.3283 N.pl3   1  UNL1       -0.3375
     11 S         142.8432  141.7009  168.1557 S.2     1  UNL1       -0.0520
     12 C         141.6365  140.9079  167.7493 C.ar    1  UNL1        0.0498
     13 C         141.3095  140.1480  166.4981 C.ar    1  UNL1        0.0126
     14 H         143.2988  143.3951  171.2299 H       1  UNL1        0.1442
     15 H         144.4216  143.3402  169.9477 H       1  UNL1        0.1442
     16 C         138.4732  138.5418  162.8201 C.3     1  UNL1        0.1209
     17 C         141.0343  139.0366  159.1533 C.ar    1  UNL1        0.1724
     18 C         139.6414  139.5928  159.1758 C.ar    1  UNL1        0.0398
     19 C         138.7877  139.4279  160.3981 C.ar    1  UNL1        0.0007
     20 C         139.3269  138.7067  161.5978 C.ar    1  UNL1        0.0009
     21 C         140.7198  138.1506  161.5752 C.ar    1  UNL1        0.0374
     22 C         141.5735  138.3156  160.3529 C.ar    1  UNL1        0.1721
     23 C         142.8088  140.3798  157.8127 C.3     1  UNL1        0.2526
     24 O         141.8880  139.2016  157.9310 O.3     1  UNL1       -0.4684
     25 O         142.9664  137.7595  160.3303 O.3     1  UNL1       -0.4684
     26 C         143.8688  137.9485  161.5136 C.3     1  UNL1        0.2526
     27 C         138.2596  140.6866  164.2708 C.3     1  UNL1        0.1208
     28 C         139.1632  141.8739  164.1161 C.ar    1  UNL1       -0.0014
     29 C         139.1728  142.9502  165.1608 C.ar    1  UNL1       -0.0017
     30 C         140.0763  144.1375  165.0061 C.ar    1  UNL1        0.0120
     31 C         140.9703  144.2484  163.8067 C.ar    1  UNL1        0.0682
     32 CL        141.8738  145.4357  163.6520 Cl      1  UNL1       -0.0814
     33 C         140.9606  143.1721  162.7620 C.ar    1  UNL1        0.0679
     34 CL        141.8546  143.2831  161.5626 Cl      1  UNL1       -0.0814
     35 C         140.0571  141.9849  162.9167 C.ar    1  UNL1        0.0096
@<TRIPOS>BOND
     1    23    24    1
     2    24    17    1
     3    17    18   ar
     4    18    19   ar
     5    19    20   ar
     6    20    16    1
     7    16     1    1
     8     1    27    1
     9    27    28    1
    10    28    29   ar
    11    29    30   ar
    12    30    31   ar
    13    31    32    1
    14    31    33   ar
    15    33    34    1
    16    33    35   ar
    17     1     2   am
    18     2     3    2
    19     2     4    1
    20     4     5   ar
    21     5     6   ar
    22     6     7   ar
    23     7     8   ar
    24     8     9   ar
    25     9    10    1
    26     9    11   ar
    27    11    12   ar
    28    12    13   ar
    29    20    21   ar
    30    21    22   ar
    31    22    25    1
    32    25    26    1
    33    22    17   ar
    34    35    28   ar
    35    13     4   ar
    36    12     7   ar
    37    10    14    1
    38    10    15    1
