@<TRIPOS>MOLECULE
*****
 40 43 0 0 0
SMALL
GASTEIGER

@<TRIPOS>ATOM
      1 N         138.5579  139.5745  158.6799 N.am    1  UNL1       -0.2839
      2 C         139.9033  140.0545  158.2222 C.2     1  UNL1        0.2239
      3 O         140.3604  141.4419  158.5630 O.2     1  UNL1       -0.2751
      4 H         138.2579  138.6639  158.4562 H       1  UNL1        0.1512
      5 C         137.6696  140.4819  159.4783 C.3     1  UNL1        0.2237
      6 C         137.8677  142.0429  163.1217 C.ar    1  UNL1        0.0901
      7 N         137.6813  141.9262  161.6379 N.ar    1  UNL1       -0.1691
      8 N         137.8561  140.5985  160.9622 N.ar    1  UNL1       -0.1959
      9 C         138.2172  139.3875  161.7702 C.ar    1  UNL1        0.2801
     10 O         138.3919  138.0598  161.0945 O.2     1  UNL1       -0.2654
     11 C         138.4036  139.5041  163.2540 C.ar    1  UNL1        0.0862
     12 C         138.7647  138.2931  164.0621 C.ar    1  UNL1        0.1448
     13 F         138.9394  136.9654  163.3863 F       1  UNL1       -0.2040
     14 C         138.9511  138.4098  165.5458 C.ar    1  UNL1        0.0298
     15 C         138.7764  139.7375  166.2216 C.ar    1  UNL1        0.0023
     16 C         138.4153  140.9485  165.4136 C.ar    1  UNL1        0.0015
     17 C         138.2289  140.8318  163.9298 C.ar    1  UNL1        0.0226
     18 C         137.6930  143.3706  163.7974 C.3     1  UNL1        0.1569
     19 C         138.6586  144.4851  163.5223 C.2     1  UNL1        0.3231
     20 O         139.7407  144.8014  164.5118 O.2     1  UNL1       -0.2497
     21 O         138.5421  145.2832  162.2576 O.3     1  UNL1       -0.4482
     22 C         140.8215  145.2541  161.0112 C.3     1  UNL1        0.0513
     23 C         139.7370  146.0120  161.7179 C.3     1  UNL1        0.2086
     24 C         140.7916  139.1471  157.4237 C.3     1  UNL1        0.0865
     25 C         142.2825  139.2747  157.5284 C.3     1  UNL1        0.0269
     26 C         143.0430  138.4134  158.4926 C.3     1  UNL1        0.0727
     27 N         142.9659  138.6877  159.9653 N.3     1  UNL1       -0.2698
     28 C         143.9761  139.5863  160.6148 C.3     1  UNL1        0.0938
     29 C         143.8990  139.8606  162.0875 C.3     1  UNL1        0.1081
     30 N         142.8116  139.2362  162.9107 N.pl3   1  UNL1       -0.3049
     31 C         141.8013  138.3375  162.2612 C.3     1  UNL1        0.1081
     32 C         141.8785  138.0633  160.7885 C.3     1  UNL1        0.0938
     33 C         142.7344  139.5104  164.3834 C.ar    1  UNL1        0.0436
     34 C         143.2115  138.4806  165.3640 C.ar    1  UNL1        0.0142
     35 C         143.1343  138.7548  166.8368 C.ar    1  UNL1        0.0009
     36 C         142.5801  140.0589  167.3288 C.ar    1  UNL1       -0.0045
     37 C         142.1030  141.0888  166.3481 C.ar    1  UNL1       -0.0246
     38 C         141.5488  142.3929  166.8401 C.3     1  UNL1        0.0307
     39 C         142.1802  140.8146  164.8754 C.ar    1  UNL1       -0.0125
     40 C         141.7031  141.8444  163.8947 C.3     1  UNL1        0.0320
@<TRIPOS>BOND
     1    22    23    1
     2    23    21    1
     3    21    19    1
     4    19    20    2
     5    19    18    1
     6    18     6    1
     7     6     7   ar
     8     7     8   ar
     9     8     5    1
    10     5     1    1
    11     1     2   am
    12     2     3    2
    13     2    24    1
    14    24    25    1
    15    25    26    1
    16    26    27    1
    17    27    28    1
    18    28    29    1
    19    29    30    1
    20    30    33    1
    21    33    34   ar
    22    34    35   ar
    23    35    36   ar
    24    36    37   ar
    25    37    38    1
    26    37    39   ar
    27    39    40    1
    28    30    31    1
    29    31    32    1
    30     8     9   ar
    31     9    10    2
    32     9    11   ar
    33    11    12   ar
    34    12    13    1
    35    12    14   ar
    36    14    15   ar
    37    15    16   ar
    38    16    17   ar
    39    17     6   ar
    40    32    27    1
    41    17    11   ar
    42    39    33   ar
    43     1     4    1
@<TRIPOS>MOLECULE
*****
 40 43 0 0 0
SMALL
GASTEIGER

@<TRIPOS>ATOM
      1 N         142.0668  145.1198  161.7031 N.am    1  UNL1       -0.2839
      2 C         140.9072  145.3279  160.7746 C.2     1  UNL1        0.2239
      3 O         139.5289  145.5318  161.3301 O.2     1  UNL1       -0.2751
      4 H         142.9714  144.9860  161.3385 H       1  UNL1        0.1512
      5 C         141.8480  145.1156  163.1870 C.3     1  UNL1        0.2237
      6 C         141.2096  142.3151  165.9256 C.ar    1  UNL1        0.0901
      7 N         141.0913  143.5957  165.1536 N.ar    1  UNL1       -0.1691
      8 N         141.9664  143.8349  163.9590 N.ar    1  UNL1       -0.1959
      9 C         142.9597  142.7935  163.5364 C.ar    1  UNL1        0.2801
     10 O         143.8348  143.0327  162.3418 O.2     1  UNL1       -0.2654
     11 C         143.0781  141.5128  164.3084 C.ar    1  UNL1        0.0862
     12 C         144.0714  140.4714  163.8857 C.ar    1  UNL1        0.1448
     13 F         144.9465  140.7106  162.6911 F       1  UNL1       -0.2040
     14 C         144.1897  139.1908  164.6577 C.ar    1  UNL1        0.0298
     15 C         143.3147  138.9516  165.8523 C.ar    1  UNL1        0.0023
     16 C         142.3214  139.9930  166.2749 C.ar    1  UNL1        0.0015
     17 C         142.2030  141.2736  165.5030 C.ar    1  UNL1        0.0226
     18 C         140.3346  142.0759  167.1202 C.3     1  UNL1        0.1569
     19 C         140.7698  142.5490  168.4754 C.2     1  UNL1        0.3231
     20 O         140.1042  143.7368  169.1047 O.2     1  UNL1       -0.2497
     21 O         141.8707  141.8342  169.2015 O.3     1  UNL1       -0.4482
     22 C         142.0801  139.3441  169.9128 C.3     1  UNL1        0.0513
     23 C         141.5427  140.7235  170.1549 C.3     1  UNL1        0.2086
     24 C         141.1260  145.3321  159.2906 C.3     1  UNL1        0.0865
     25 C         140.1207  144.6880  158.3825 C.3     1  UNL1        0.0269
     26 C         140.1767  143.2106  158.1296 C.3     1  UNL1        0.0727
     27 N         140.1327  142.2503  159.2811 N.3     1  UNL1       -0.2698
     28 C         138.8140  141.7425  159.7843 C.3     1  UNL1        0.0938
     29 C         138.7700  140.7822  160.9358 C.3     1  UNL1        0.1081
     30 N         140.0447  140.3298  161.5842 N.pl3   1  UNL1       -0.3049
     31 C         141.3634  140.8376  161.0810 C.3     1  UNL1        0.1081
     32 C         141.4074  141.7978  159.9295 C.3     1  UNL1        0.0938
     33 C         140.0007  139.3695  162.7356 C.ar    1  UNL1        0.0436
     34 C         140.8010  138.1019  162.6860 C.ar    1  UNL1        0.0142
     35 C         140.7571  137.1416  163.8376 C.ar    1  UNL1        0.0009
     36 C         139.9128  137.4490  165.0387 C.ar    1  UNL1       -0.0045
     37 C         139.1124  138.7167  165.0882 C.ar    1  UNL1       -0.0246
     38 C         138.2681  139.0241  166.2893 C.3     1  UNL1        0.0307
     39 C         139.1564  139.6769  163.9367 C.ar    1  UNL1       -0.0125
     40 C         138.3560  140.9446  163.9864 C.3     1  UNL1        0.0320
@<TRIPOS>BOND
     1    22    23    1
     2    23    21    1
     3    21    19    1
     4    19    20    2
     5    19    18    1
     6    18     6    1
     7     6     7   ar
     8     7     8   ar
     9     8     5    1
    10     5     1    1
    11     1     2   am
    12     2     3    2
    13     2    24    1
    14    24    25    1
    15    25    26    1
    16    26    27    1
    17    27    28    1
    18    28    29    1
    19    29    30    1
    20    30    33    1
    21    33    34   ar
    22    34    35   ar
    23    35    36   ar
    24    36    37   ar
    25    37    38    1
    26    37    39   ar
    27    39    40    1
    28    30    31    1
    29    31    32    1
    30     8     9   ar
    31     9    10    2
    32     9    11   ar
    33    11    12   ar
    34    12    13    1
    35    12    14   ar
    36    14    15   ar
    37    15    16   ar
    38    16    17   ar
    39    17     6   ar
    40    32    27    1
    41    17    11   ar
    42    39    33   ar
    43     1     4    1
@<TRIPOS>MOLECULE
*****
 40 43 0 0 0
SMALL
GASTEIGER

@<TRIPOS>ATOM
      1 N         141.2346  144.7490  161.7686 N.am    1  UNL1       -0.2839
      2 C         140.2758  145.5231  160.9133 C.2     1  UNL1        0.2239
      3 O         139.2810  146.4478  161.5500 O.2     1  UNL1       -0.2751
      4 H         141.8875  144.1421  161.3507 H       1  UNL1        0.1512
      5 C         141.1985  144.8996  163.2605 C.3     1  UNL1        0.2237
      6 C         141.6504  142.1605  166.0966 C.ar    1  UNL1        0.0901
      7 N         141.9047  143.3566  165.2279 N.ar    1  UNL1       -0.1691
      8 N         140.9442  143.7034  164.1292 N.ar    1  UNL1       -0.1959
      9 C         139.7295  142.8541  163.8990 C.ar    1  UNL1        0.2801
     10 O         138.7691  143.2008  162.8003 O.2     1  UNL1       -0.2654
     11 C         139.4752  141.6579  164.7677 C.ar    1  UNL1        0.0862
     12 C         138.2604  140.8085  164.5376 C.ar    1  UNL1        0.1448
     13 F         137.3000  141.1553  163.4388 F       1  UNL1       -0.2040
     14 C         138.0062  139.6124  165.4062 C.ar    1  UNL1        0.0298
     15 C         138.9666  139.2656  166.5050 C.ar    1  UNL1        0.0023
     16 C         140.1813  140.1150  166.7351 C.ar    1  UNL1        0.0015
     17 C         140.4356  141.3111  165.8665 C.ar    1  UNL1        0.0226
     18 C         142.6108  141.8137  167.1954 C.3     1  UNL1        0.1569
     19 C         142.5230  142.5162  168.5177 C.2     1  UNL1        0.3231
     20 O         143.7579  142.7125  169.3463 O.2     1  UNL1       -0.2497
     21 O         141.2002  143.0224  169.0117 O.3     1  UNL1       -0.4482
     22 C         139.5740  141.2604  170.0123 C.3     1  UNL1        0.0513
     23 C         140.5500  142.3835  170.2029 C.3     1  UNL1        0.2086
     24 C         140.3118  145.3725  159.4213 C.3     1  UNL1        0.0865
     25 C         141.5801  144.9511  158.7404 C.3     1  UNL1        0.0269
     26 C         141.8039  143.5078  158.3985 C.3     1  UNL1        0.0727
     27 N         141.7658  142.4668  159.4779 N.3     1  UNL1       -0.2698
     28 C         143.0237  142.0939  160.2050 C.3     1  UNL1        0.0938
     29 C         142.9856  141.0529  161.2843 C.3     1  UNL1        0.1081
     30 N         141.6896  140.3848  161.6364 N.pl3   1  UNL1       -0.3049
     31 C         140.4317  140.7577  160.9092 C.3     1  UNL1        0.1081
     32 C         140.4698  141.7987  159.8300 C.3     1  UNL1        0.0938
     33 C         141.6514  139.3438  162.7157 C.ar    1  UNL1        0.0436
     34 C         140.5982  138.2760  162.6908 C.ar    1  UNL1        0.0142
     35 C         140.5600  137.2349  163.7701 C.ar    1  UNL1        0.0009
     36 C         141.5751  137.2617  164.8742 C.ar    1  UNL1       -0.0045
     37 C         142.6283  138.3295  164.8990 C.ar    1  UNL1       -0.0246
     38 C         143.6433  138.3563  166.0031 C.3     1  UNL1        0.0307
     39 C         142.6664  139.3705  163.8198 C.ar    1  UNL1       -0.0125
     40 C         143.7196  140.4383  163.8446 C.3     1  UNL1        0.0320
@<TRIPOS>BOND
     1    22    23    1
     2    23    21    1
     3    21    19    1
     4    19    20    2
     5    19    18    1
     6    18     6    1
     7     6     7   ar
     8     7     8   ar
     9     8     5    1
    10     5     1    1
    11     1     2   am
    12     2     3    2
    13     2    24    1
    14    24    25    1
    15    25    26    1
    16    26    27    1
    17    27    28    1
    18    28    29    1
    19    29    30    1
    20    30    33    1
    21    33    34   ar
    22    34    35   ar
    23    35    36   ar
    24    36    37   ar
    25    37    38    1
    26    37    39   ar
    27    39    40    1
    28    30    31    1
    29    31    32    1
    30     8     9   ar
    31     9    10    2
    32     9    11   ar
    33    11    12   ar
    34    12    13    1
    35    12    14   ar
    36    14    15   ar
    37    15    16   ar
    38    16    17   ar
    39    17     6   ar
    40    32    27    1
    41    17    11   ar
    42    39    33   ar
    43     1     4    1
@<TRIPOS>MOLECULE
*****
 40 43 0 0 0
SMALL
GASTEIGER

@<TRIPOS>ATOM
      1 N         141.2328  145.5477  162.4364 N.am    1  UNL1       -0.2839
      2 C         139.9896  145.6398  161.6023 C.2     1  UNL1        0.2239
      3 O         138.6578  145.2956  162.2004 O.2     1  UNL1       -0.2751
      4 H         142.1069  145.7736  162.0438 H       1  UNL1        0.1512
      5 C         141.1442  145.1114  163.8688 C.3     1  UNL1        0.2237
      6 C         143.4818  141.9065  163.9911 C.ar    1  UNL1        0.0901
      7 N         142.9104  143.2289  163.5732 N.ar    1  UNL1       -0.1691
      8 N         141.7157  143.7889  164.2868 N.ar    1  UNL1       -0.1959
      9 C         141.0925  143.0265  165.4182 C.ar    1  UNL1        0.2801
     10 O         139.8978  143.5864  166.1318 O.2     1  UNL1       -0.2654
     11 C         141.6639  141.7040  165.8362 C.ar    1  UNL1        0.0862
     12 C         141.0407  140.9416  166.9676 C.ar    1  UNL1        0.1448
     13 F         139.8460  141.5015  167.6812 F       1  UNL1       -0.2040
     14 C         141.6122  139.6192  167.3855 C.ar    1  UNL1        0.0298
     15 C         142.8069  139.0592  166.6719 C.ar    1  UNL1        0.0023
     16 C         143.4301  139.8217  165.5405 C.ar    1  UNL1        0.0015
     17 C         142.8586  141.1440  165.1226 C.ar    1  UNL1        0.0226
     18 C         144.6765  141.3466  163.2775 C.3     1  UNL1        0.1569
     19 C         144.7193  141.3395  161.7782 C.2     1  UNL1        0.3231
     20 O         145.1109  142.5811  161.0331 O.2     1  UNL1       -0.2497
     21 O         144.3705  140.0907  161.0238 O.3     1  UNL1       -0.4482
     22 C         143.4634  137.6561  161.0138 C.3     1  UNL1        0.0513
     23 C         143.9518  138.8573  161.7678 C.3     1  UNL1        0.2086
     24 C         140.0782  146.0761  160.1698 C.3     1  UNL1        0.0865
     25 C         140.5548  145.1153  159.1212 C.3     1  UNL1        0.0269
     26 C         139.7952  143.8477  158.8647 C.3     1  UNL1        0.0727
     27 N         139.7491  142.7756  159.9129 N.3     1  UNL1       -0.2698
     28 C         138.4328  142.1873  160.3266 C.3     1  UNL1        0.0938
     29 C         138.3868  141.1152  161.3749 C.3     1  UNL1        0.1081
     30 N         139.6571  140.6316  162.0093 N.pl3   1  UNL1       -0.3049
     31 C         140.9734  141.2201  161.5955 C.3     1  UNL1        0.1081
     32 C         141.0194  142.2920  160.5474 C.3     1  UNL1        0.0938
     33 C         139.6111  139.5597  163.0575 C.ar    1  UNL1        0.0436
     34 C         140.3851  138.2893  162.8654 C.ar    1  UNL1        0.0142
     35 C         140.3391  137.2172  163.9137 C.ar    1  UNL1        0.0009
     36 C         139.5191  137.4156  165.1539 C.ar    1  UNL1       -0.0045
     37 C         138.7450  138.6861  165.3459 C.ar    1  UNL1       -0.0246
     38 C         137.9250  138.8846  166.5861 C.3     1  UNL1        0.0307
     39 C         138.7910  139.7581  164.2977 C.ar    1  UNL1       -0.0125
     40 C         138.0170  141.0285  164.4898 C.3     1  UNL1        0.0320
@<TRIPOS>BOND
     1    22    23    1
     2    23    21    1
     3    21    19    1
     4    19    20    2
     5    19    18    1
     6    18     6    1
     7     6     7   ar
     8     7     8   ar
     9     8     5    1
    10     5     1    1
    11     1     2   am
    12     2     3    2
    13     2    24    1
    14    24    25    1
    15    25    26    1
    16    26    27    1
    17    27    28    1
    18    28    29    1
    19    29    30    1
    20    30    33    1
    21    33    34   ar
    22    34    35   ar
    23    35    36   ar
    24    36    37   ar
    25    37    38    1
    26    37    39   ar
    27    39    40    1
    28    30    31    1
    29    31    32    1
    30     8     9   ar
    31     9    10    2
    32     9    11   ar
    33    11    12   ar
    34    12    13    1
    35    12    14   ar
    36    14    15   ar
    37    15    16   ar
    38    16    17   ar
    39    17     6   ar
    40    32    27    1
    41    17    11   ar
    42    39    33   ar
    43     1     4    1
@<TRIPOS>MOLECULE
*****
 40 43 0 0 0
SMALL
GASTEIGER

@<TRIPOS>ATOM
      1 N         141.8798  142.3317  158.8765 N.am    1  UNL1       -0.2839
      2 C         142.3850  143.6214  159.4521 C.2     1  UNL1        0.2239
      3 O         143.6081  143.6272  160.3203 O.2     1  UNL1       -0.2751
      4 H         141.0770  142.3279  158.3066 H       1  UNL1        0.1512
      5 C         142.5979  141.0477  159.1691 C.3     1  UNL1        0.2237
      6 C         143.3076  140.0037  162.9317 C.ar    1  UNL1        0.0901
      7 N         143.4567  140.6574  161.5899 N.ar    1  UNL1       -0.1691
      8 N         142.4486  140.3939  160.5109 N.ar    1  UNL1       -0.1959
      9 C         141.2913  139.4765  160.7737 C.ar    1  UNL1        0.2801
     10 O         140.2832  139.2129  159.6947 O.2     1  UNL1       -0.2654
     11 C         141.1421  138.8227  162.1154 C.ar    1  UNL1        0.0862
     12 C         139.9848  137.9053  162.3782 C.ar    1  UNL1        0.1448
     13 F         138.9767  137.6417  161.2992 F       1  UNL1       -0.2040
     14 C         139.8356  137.2515  163.7199 C.ar    1  UNL1        0.0298
     15 C         140.8437  137.5151  164.7989 C.ar    1  UNL1        0.0023
     16 C         142.0010  138.4325  164.5362 C.ar    1  UNL1        0.0015
     17 C         142.1502  139.0863  163.1944 C.ar    1  UNL1        0.0226
     18 C         144.3157  140.2673  164.0107 C.3     1  UNL1        0.1569
     19 C         145.0927  141.5503  164.0139 C.2     1  UNL1        0.3231
     20 O         146.2777  141.7117  163.1085 O.2     1  UNL1       -0.2497
     21 O         144.6847  142.6719  164.9225 O.3     1  UNL1       -0.4482
     22 C         143.3393  144.6095  163.8336 C.3     1  UNL1        0.0513
     23 C         143.3838  143.3840  164.6974 C.3     1  UNL1        0.2086
     24 C         141.6669  144.9056  159.1595 C.3     1  UNL1        0.0865
     25 C         140.2761  145.1221  159.6778 C.3     1  UNL1        0.0269
     26 C         140.0667  145.6369  161.0710 C.3     1  UNL1        0.0727
     27 N         139.9899  144.6775  162.2216 N.3     1  UNL1       -0.2698
     28 C         140.3442  143.2341  162.0194 C.3     1  UNL1        0.0938
     29 C         140.2674  142.2746  163.1699 C.3     1  UNL1        0.1081
     30 N         139.8363  142.7587  164.5226 N.pl3   1  UNL1       -0.3049
     31 C         139.4820  144.2022  164.7248 C.3     1  UNL1        0.1081
     32 C         139.5588  145.1616  163.5743 C.3     1  UNL1        0.0938
     33 C         139.7595  141.7994  165.6731 C.ar    1  UNL1        0.0436
     34 C         140.6062  142.0200  166.8914 C.ar    1  UNL1        0.0142
     35 C         140.5295  141.0606  168.0420 C.ar    1  UNL1        0.0009
     36 C         139.6059  139.8806  167.9742 C.ar    1  UNL1       -0.0045
     37 C         138.7591  139.6600  166.7558 C.ar    1  UNL1       -0.0246
     38 C         137.8355  138.4800  166.6880 C.3     1  UNL1        0.0307
     39 C         138.8359  140.6193  165.6053 C.ar    1  UNL1       -0.0125
     40 C         137.9892  140.3987  164.3870 C.3     1  UNL1        0.0320
@<TRIPOS>BOND
     1    22    23    1
     2    23    21    1
     3    21    19    1
     4    19    20    2
     5    19    18    1
     6    18     6    1
     7     6     7   ar
     8     7     8   ar
     9     8     5    1
    10     5     1    1
    11     1     2   am
    12     2     3    2
    13     2    24    1
    14    24    25    1
    15    25    26    1
    16    26    27    1
    17    27    28    1
    18    28    29    1
    19    29    30    1
    20    30    33    1
    21    33    34   ar
    22    34    35   ar
    23    35    36   ar
    24    36    37   ar
    25    37    38    1
    26    37    39   ar
    27    39    40    1
    28    30    31    1
    29    31    32    1
    30     8     9   ar
    31     9    10    2
    32     9    11   ar
    33    11    12   ar
    34    12    13    1
    35    12    14   ar
    36    14    15   ar
    37    15    16   ar
    38    16    17   ar
    39    17     6   ar
    40    32    27    1
    41    17    11   ar
    42    39    33   ar
    43     1     4    1
@<TRIPOS>MOLECULE
*****
 40 43 0 0 0
SMALL
GASTEIGER

@<TRIPOS>ATOM
      1 N         142.4940  141.1233  159.0772 N.am    1  UNL1       -0.2839
      2 C         143.3002  140.0938  159.8121 C.2     1  UNL1        0.2239
      3 O         144.2484  140.5165  160.8948 O.2     1  UNL1       -0.2751
      4 H         141.8717  140.8458  158.3666 H       1  UNL1        0.1512
      5 C         142.6360  142.5755  159.4249 C.3     1  UNL1        0.2237
      6 C         142.5589  144.1350  163.0735 C.ar    1  UNL1        0.0901
      7 N         143.0751  143.6241  161.7611 N.ar    1  UNL1       -0.1691
      8 N         142.1197  143.0864  160.7374 N.ar    1  UNL1       -0.1959
      9 C         140.6480  143.0596  161.0260 C.ar    1  UNL1        0.2801
     10 O         139.6926  142.5219  160.0023 O.2     1  UNL1       -0.2654
     11 C         140.1317  143.5705  162.3385 C.ar    1  UNL1        0.0862
     12 C         138.6600  143.5437  162.6271 C.ar    1  UNL1        0.1448
     13 F         137.7045  143.0060  161.6034 F       1  UNL1       -0.2040
     14 C         138.1437  144.0546  163.9395 C.ar    1  UNL1        0.0298
     15 C         139.0992  144.5923  164.9633 C.ar    1  UNL1        0.0023
     16 C         140.5709  144.6191  164.6746 C.ar    1  UNL1        0.0015
     17 C         141.0871  144.1082  163.3622 C.ar    1  UNL1        0.0226
     18 C         143.5143  144.6727  164.0972 C.3     1  UNL1        0.1569
     19 C         144.2239  143.7337  165.0271 C.2     1  UNL1        0.3231
     20 O         145.1751  144.2718  166.0546 O.2     1  UNL1       -0.2497
     21 O         143.9823  142.2565  164.9295 O.3     1  UNL1       -0.4482
     22 C         144.8508  139.8846  164.3210 C.3     1  UNL1        0.0513
     23 C         144.9835  141.3766  164.2413 C.3     1  UNL1        0.2086
     24 C         143.1582  138.6416  159.4644 C.3     1  UNL1        0.0865
     25 C         142.4020  137.7223  160.3770 C.3     1  UNL1        0.0269
     26 C         141.1587  138.2037  161.0643 C.3     1  UNL1        0.0727
     27 N         141.2022  138.5812  162.5154 N.3     1  UNL1       -0.2698
     28 C         141.3835  137.5212  163.5610 C.3     1  UNL1        0.0938
     29 C         141.4269  137.8987  165.0122 C.3     1  UNL1        0.1081
     30 N         141.2891  139.3363  165.4176 N.pl3   1  UNL1       -0.3049
     31 C         141.1078  140.3964  164.3719 C.3     1  UNL1        0.1081
     32 C         141.0643  140.0188  162.9208 C.3     1  UNL1        0.0938
     33 C         141.3326  139.7138  166.8686 C.ar    1  UNL1        0.0436
     34 C         142.6506  139.9662  167.5387 C.ar    1  UNL1        0.0142
     35 C         142.6941  140.3437  168.9898 C.ar    1  UNL1        0.0009
     36 C         141.4195  140.4689  169.7707 C.ar    1  UNL1       -0.0045
     37 C         140.1015  140.2165  169.1006 C.ar    1  UNL1       -0.0246
     38 C         138.8269  140.3417  169.8815 C.3     1  UNL1        0.0307
     39 C         140.0580  139.8390  167.6495 C.ar    1  UNL1       -0.0125
     40 C         138.7400  139.5866  166.9794 C.3     1  UNL1        0.0320
@<TRIPOS>BOND
     1    22    23    1
     2    23    21    1
     3    21    19    1
     4    19    20    2
     5    19    18    1
     6    18     6    1
     7     6     7   ar
     8     7     8   ar
     9     8     5    1
    10     5     1    1
    11     1     2   am
    12     2     3    2
    13     2    24    1
    14    24    25    1
    15    25    26    1
    16    26    27    1
    17    27    28    1
    18    28    29    1
    19    29    30    1
    20    30    33    1
    21    33    34   ar
    22    34    35   ar
    23    35    36   ar
    24    36    37   ar
    25    37    38    1
    26    37    39   ar
    27    39    40    1
    28    30    31    1
    29    31    32    1
    30     8     9   ar
    31     9    10    2
    32     9    11   ar
    33    11    12   ar
    34    12    13    1
    35    12    14   ar
    36    14    15   ar
    37    15    16   ar
    38    16    17   ar
    39    17     6   ar
    40    32    27    1
    41    17    11   ar
    42    39    33   ar
    43     1     4    1
@<TRIPOS>MOLECULE
*****
 40 43 0 0 0
SMALL
GASTEIGER

@<TRIPOS>ATOM
      1 N         141.7108  142.7212  158.2358 N.am    1  UNL1       -0.2839
      2 C         142.9373  141.8610  158.3103 C.2     1  UNL1        0.2239
      3 O         144.1262  142.3170  159.1032 O.2     1  UNL1       -0.2751
      4 H         140.9305  142.4219  157.7155 H       1  UNL1        0.1512
      5 C         141.6731  144.0374  158.9542 C.3     1  UNL1        0.2237
      6 C         142.1108  144.5797  162.8611 C.ar    1  UNL1        0.0901
      7 N         142.4168  144.5348  161.3934 N.ar    1  UNL1       -0.1691
      8 N         141.3672  144.0823  160.4220 N.ar    1  UNL1       -0.1959
      9 C         140.0117  143.6747  160.9184 C.ar    1  UNL1        0.2801
     10 O         138.9621  143.2222  159.9470 O.2     1  UNL1       -0.2654
     11 C         139.7057  143.7196  162.3862 C.ar    1  UNL1        0.0862
     12 C         138.3502  143.3120  162.8826 C.ar    1  UNL1        0.1448
     13 F         137.3006  142.8595  161.9112 F       1  UNL1       -0.2040
     14 C         138.0443  143.3570  164.3503 C.ar    1  UNL1        0.0298
     15 C         139.0939  143.8095  165.3217 C.ar    1  UNL1        0.0023
     16 C         140.4494  144.2170  164.8253 C.ar    1  UNL1        0.0015
     17 C         140.7553  144.1721  163.3576 C.ar    1  UNL1        0.0226
     18 C         143.1604  145.0322  163.8325 C.3     1  UNL1        0.1569
     19 C         144.1330  144.0419  164.4011 C.2     1  UNL1        0.3231
     20 O         144.8647  144.3545  165.6728 O.2     1  UNL1       -0.2497
     21 O         144.3740  142.7389  163.6981 O.3     1  UNL1       -0.4482
     22 C         145.3294  140.3392  163.9781 C.3     1  UNL1        0.0513
     23 C         145.4611  141.8207  164.1725 C.3     1  UNL1        0.2086
     24 C         142.9751  140.5447  157.5920 C.3     1  UNL1        0.0865
     25 C         143.0067  139.2646  158.3732 C.3     1  UNL1        0.0269
     26 C         141.7244  138.6202  158.8093 C.3     1  UNL1        0.0727
     27 N         141.2475  138.7797  160.2225 N.3     1  UNL1       -0.2698
     28 C         141.7678  137.8711  161.2966 C.3     1  UNL1        0.0938
     29 C         141.2910  138.0305  162.7099 C.3     1  UNL1        0.1081
     30 N         140.2939  139.0986  163.0490 N.pl3   1  UNL1       -0.3049
     31 C         139.7736  140.0073  161.9748 C.3     1  UNL1        0.1081
     32 C         140.2505  139.8478  160.5616 C.3     1  UNL1        0.0938
     33 C         139.8171  139.2582  164.4622 C.ar    1  UNL1        0.0436
     34 C         138.6166  138.4957  164.9392 C.ar    1  UNL1        0.0142
     35 C         138.1397  138.6552  166.3525 C.ar    1  UNL1        0.0009
     36 C         138.8634  139.5771  167.2887 C.ar    1  UNL1       -0.0045
     37 C         140.0639  140.3396  166.8116 C.ar    1  UNL1       -0.0246
     38 C         140.7875  141.2615  167.7477 C.3     1  UNL1        0.0307
     39 C         140.5407  140.1801  165.3984 C.ar    1  UNL1       -0.0125
     40 C         141.7411  140.9425  164.9214 C.3     1  UNL1        0.0320
@<TRIPOS>BOND
     1    22    23    1
     2    23    21    1
     3    21    19    1
     4    19    20    2
     5    19    18    1
     6    18     6    1
     7     6     7   ar
     8     7     8   ar
     9     8     5    1
    10     5     1    1
    11     1     2   am
    12     2     3    2
    13     2    24    1
    14    24    25    1
    15    25    26    1
    16    26    27    1
    17    27    28    1
    18    28    29    1
    19    29    30    1
    20    30    33    1
    21    33    34   ar
    22    34    35   ar
    23    35    36   ar
    24    36    37   ar
    25    37    38    1
    26    37    39   ar
    27    39    40    1
    28    30    31    1
    29    31    32    1
    30     8     9   ar
    31     9    10    2
    32     9    11   ar
    33    11    12   ar
    34    12    13    1
    35    12    14   ar
    36    14    15   ar
    37    15    16   ar
    38    16    17   ar
    39    17     6   ar
    40    32    27    1
    41    17    11   ar
    42    39    33   ar
    43     1     4    1
@<TRIPOS>MOLECULE
*****
 40 43 0 0 0
SMALL
GASTEIGER

@<TRIPOS>ATOM
      1 N         139.4022  141.3540  158.5782 N.am    1  UNL1       -0.2839
      2 C         139.9850  142.6842  158.2031 C.2     1  UNL1        0.2239
      3 O         139.2771  143.9490  158.5893 O.2     1  UNL1       -0.2751
      4 H         139.8668  140.5239  158.3247 H       1  UNL1        0.1512
      5 C         138.1115  141.2886  159.3396 C.3     1  UNL1        0.2237
      6 C         137.8792  142.2149  163.1916 C.ar    1  UNL1        0.0901
      7 N         137.8627  142.3502  161.6979 N.ar    1  UNL1       -0.1691
      8 N         138.1280  141.1533  160.8335 N.ar    1  UNL1       -0.1959
      9 C         138.4097  139.8212  161.4628 C.ar    1  UNL1        0.2801
     10 O         138.6749  138.6244  160.5984 O.2     1  UNL1       -0.2654
     11 C         138.4261  139.6859  162.9567 C.ar    1  UNL1        0.0862
     12 C         138.7078  138.3538  163.5860 C.ar    1  UNL1        0.1448
     13 F         138.9731  137.1570  162.7216 F       1  UNL1       -0.2040
     14 C         138.7243  138.2186  165.0798 C.ar    1  UNL1        0.0298
     15 C         138.4591  139.4154  165.9442 C.ar    1  UNL1        0.0023
     16 C         138.1774  140.7475  165.3148 C.ar    1  UNL1        0.0015
     17 C         138.1609  140.8828  163.8211 C.ar    1  UNL1        0.0226
     18 C         137.6140  143.4118  164.0561 C.3     1  UNL1        0.1569
     19 C         138.7576  144.2410  164.5604 C.2     1  UNL1        0.3231
     20 O         138.5521  145.1819  165.7104 O.2     1  UNL1       -0.2497
     21 O         140.1070  144.1293  163.9147 O.3     1  UNL1       -0.4482
     22 C         140.1373  145.4567  161.6815 C.3     1  UNL1        0.0513
     23 C         140.6360  145.2596  163.0824 C.3     1  UNL1        0.2086
     24 C         141.2758  142.7497  157.4416 C.3     1  UNL1        0.0865
     25 C         142.5819  142.7576  158.1789 C.3     1  UNL1        0.0269
     26 C         142.7424  143.5974  159.4113 C.3     1  UNL1        0.0727
     27 N         142.6813  142.9589  160.7673 N.3     1  UNL1       -0.2698
     28 C         143.6654  143.3548  161.8278 C.3     1  UNL1        0.0938
     29 C         143.6043  142.7163  163.1838 C.3     1  UNL1        0.1081
     30 N         142.5590  141.6818  163.4792 N.pl3   1  UNL1       -0.3049
     31 C         141.5748  141.2859  162.4186 C.3     1  UNL1        0.1081
     32 C         141.6360  141.9244  161.0627 C.3     1  UNL1        0.0938
     33 C         142.4978  141.0433  164.8351 C.ar    1  UNL1        0.0436
     34 C         141.6782  141.6709  165.9233 C.ar    1  UNL1        0.0142
     35 C         141.6170  141.0323  167.2793 C.ar    1  UNL1        0.0009
     36 C         142.3755  139.7662  167.5470 C.ar    1  UNL1       -0.0045
     37 C         143.1952  139.1386  166.4586 C.ar    1  UNL1       -0.0246
     38 C         143.9536  137.8725  166.7263 C.3     1  UNL1        0.0307
     39 C         143.2563  139.7772  165.1028 C.ar    1  UNL1       -0.0125
     40 C         144.0759  139.1496  164.0145 C.3     1  UNL1        0.0320
@<TRIPOS>BOND
     1    22    23    1
     2    23    21    1
     3    21    19    1
     4    19    20    2
     5    19    18    1
     6    18     6    1
     7     6     7   ar
     8     7     8   ar
     9     8     5    1
    10     5     1    1
    11     1     2   am
    12     2     3    2
    13     2    24    1
    14    24    25    1
    15    25    26    1
    16    26    27    1
    17    27    28    1
    18    28    29    1
    19    29    30    1
    20    30    33    1
    21    33    34   ar
    22    34    35   ar
    23    35    36   ar
    24    36    37   ar
    25    37    38    1
    26    37    39   ar
    27    39    40    1
    28    30    31    1
    29    31    32    1
    30     8     9   ar
    31     9    10    2
    32     9    11   ar
    33    11    12   ar
    34    12    13    1
    35    12    14   ar
    36    14    15   ar
    37    15    16   ar
    38    16    17   ar
    39    17     6   ar
    40    32    27    1
    41    17    11   ar
    42    39    33   ar
    43     1     4    1
@<TRIPOS>MOLECULE
*****
 40 43 0 0 0
SMALL
GASTEIGER

@<TRIPOS>ATOM
      1 N         139.9279  144.8513  159.0008 N.am    1  UNL1       -0.2839
      2 C         140.1726  144.6944  157.5293 C.2     1  UNL1        0.2239
      3 O         141.5007  145.0748  156.9451 O.2     1  UNL1       -0.2751
      4 H         139.0562  144.6016  159.3843 H       1  UNL1        0.1512
      5 C         141.0114  145.3887  159.8881 C.3     1  UNL1        0.2237
      6 C         142.8638  143.7481  162.9908 C.ar    1  UNL1        0.0901
      7 N         142.6287  144.3578  161.6407 N.ar    1  UNL1       -0.1691
      8 N         141.2464  144.7790  161.2383 N.ar    1  UNL1       -0.1959
      9 C         140.0992  144.5905  162.1861 C.ar    1  UNL1        0.2801
     10 O         138.7169  145.0117  161.7838 O.2     1  UNL1       -0.2654
     11 C         140.3342  143.9807  163.5364 C.ar    1  UNL1        0.0862
     12 C         139.1870  143.7922  164.4841 C.ar    1  UNL1        0.1448
     13 F         137.8048  144.2134  164.0818 F       1  UNL1       -0.2040
     14 C         139.4221  143.1825  165.8343 C.ar    1  UNL1        0.0298
     15 C         140.8044  142.7613  166.2366 C.ar    1  UNL1        0.0023
     16 C         141.9516  142.9498  165.2889 C.ar    1  UNL1        0.0015
     17 C         141.7165  143.5595  163.9387 C.ar    1  UNL1        0.0226
     18 C         144.2460  143.3269  163.3932 C.3     1  UNL1        0.1569
     19 C         144.7428  141.9547  163.0463 C.2     1  UNL1        0.3231
     20 O         146.2169  141.6888  162.9657 O.2     1  UNL1       -0.2497
     21 O         143.7655  140.8484  162.7799 O.3     1  UNL1       -0.4482
     22 C         143.5219  139.5720  165.0297 C.3     1  UNL1        0.0513
     23 C         143.8447  139.5725  163.5649 C.3     1  UNL1        0.2086
     24 C         139.0892  144.1570  156.6419 C.3     1  UNL1        0.0865
     25 C         138.8136  142.6830  156.6032 C.3     1  UNL1        0.0269
     26 C         139.9031  141.7074  156.9365 C.3     1  UNL1        0.0727
     27 N         139.9195  141.0298  158.2747 N.3     1  UNL1       -0.2698
     28 C         140.8746  141.4890  159.3362 C.3     1  UNL1        0.0938
     29 C         140.8910  140.8114  160.6744 C.3     1  UNL1        0.1081
     30 N         139.9522  139.6746  160.9510 N.pl3   1  UNL1       -0.3049
     31 C         138.9970  139.2155  159.8894 C.3     1  UNL1        0.1081
     32 C         138.9807  139.8931  158.5513 C.3     1  UNL1        0.0938
     33 C         139.9686  138.9970  162.2891 C.ar    1  UNL1        0.0436
     34 C         140.8677  137.8193  162.5224 C.ar    1  UNL1        0.0142
     35 C         140.8841  137.1417  163.8606 C.ar    1  UNL1        0.0009
     36 C         140.0013  137.6418  164.9654 C.ar    1  UNL1       -0.0045
     37 C         139.1021  138.8196  164.7320 C.ar    1  UNL1       -0.0246
     38 C         138.2193  139.3197  165.8368 C.3     1  UNL1        0.0307
     39 C         139.0858  139.4972  163.3939 C.ar    1  UNL1       -0.0125
     40 C         138.1866  140.6749  163.1606 C.3     1  UNL1        0.0320
@<TRIPOS>BOND
     1    22    23    1
     2    23    21    1
     3    21    19    1
     4    19    20    2
     5    19    18    1
     6    18     6    1
     7     6     7   ar
     8     7     8   ar
     9     8     5    1
    10     5     1    1
    11     1     2   am
    12     2     3    2
    13     2    24    1
    14    24    25    1
    15    25    26    1
    16    26    27    1
    17    27    28    1
    18    28    29    1
    19    29    30    1
    20    30    33    1
    21    33    34   ar
    22    34    35   ar
    23    35    36   ar
    24    36    37   ar
    25    37    38    1
    26    37    39   ar
    27    39    40    1
    28    30    31    1
    29    31    32    1
    30     8     9   ar
    31     9    10    2
    32     9    11   ar
    33    11    12   ar
    34    12    13    1
    35    12    14   ar
    36    14    15   ar
    37    15    16   ar
    38    16    17   ar
    39    17     6   ar
    40    32    27    1
    41    17    11   ar
    42    39    33   ar
    43     1     4    1
