@<TRIPOS>MOLECULE
*****
 28 31 0 0 0
SMALL
GASTEIGER

@<TRIPOS>ATOM
      1 C         138.7642  139.0148  162.6673 C.ar    1  UNL1        0.2490
      2 N         139.2204  137.9369  161.7293 N.ar    1  UNL1       -0.1863
      3 C         139.5387  138.2702  160.3018 C.ar    1  UNL1        0.2225
      4 N         139.4007  139.6813  159.8124 N.ar    1  UNL1       -0.1420
      5 N         138.9445  140.7592  160.7504 N.ar    1  UNL1       -0.2193
      6 C         138.7165  142.2289  160.5557 C.ar    1  UNL1        0.1371
      7 C         138.2573  142.8040  161.8627 C.ar    1  UNL1        0.1553
      8 C         138.2015  141.6897  162.8653 C.ar    1  UNL1        0.0359
      9 C         137.7928  141.8168  164.3029 C.3     1  UNL1        0.0360
     10 C         138.6262  140.4259  162.1779 C.ar    1  UNL1        0.1353
     11 O         138.4459  138.6815  164.0948 O.3     1  UNL1       -0.4328
     12 C         141.0676  140.8994  171.1539 C.3     1  UNL1        0.0521
     13 C         140.8417  140.5040  169.7247 C.2     1  UNL1        0.0591
     14 C         139.5268  140.1205  169.1132 C.2     1  UNL1        0.0182
     15 C         139.7635  139.8021  167.6666 C.2     1  UNL1        0.0455
     16 C         138.8372  139.3664  166.5703 C.2     1  UNL1        0.1752
     17 F         137.3760  139.1796  166.8529 F       1  UNL1       -0.2009
     18 C         139.3722  139.1173  165.1911 C.2     1  UNL1        0.1706
     19 C         140.8334  139.3041  164.9085 C.2     1  UNL1        0.0201
     20 C         141.7597  139.7399  166.0050 C.3     1  UNL1        0.0751
     21 C         141.2247  139.9889  167.3840 C.2     1  UNL1        0.0653
     22 N         141.8911  140.4227  168.6559 N.2     1  UNL1       -0.2536
     23 O         137.9142  144.2411  162.1217 O.3     1  UNL1       -0.4715
     24 C         138.9727  145.1905  162.5995 C.3     1  UNL1        0.2344
     25 C         139.6429  144.9629  163.9220 C.3     1  UNL1        0.1541
     26 C         141.0718  144.5089  163.9704 C.3     1  UNL1        0.0357
     27 O         138.8843  145.1892  165.1960 O.3     1  UNL1       -0.3806
     28 H         139.4596  144.9981  165.9532 H       1  UNL1        0.2105
@<TRIPOS>BOND
     1    12    13    1
     2    13    14    2
     3    14    15    1
     4    15    16    2
     5    16    17    1
     6    16    18    1
     7    18    11    1
     8    11     1    1
     9     1     2   ar
    10     2     3   ar
    11     3     4   ar
    12     4     5   ar
    13     5     6   ar
    14     6     7   ar
    15     7    23    1
    16    23    24    1
    17    24    25    1
    18    25    26    1
    19    25    27    1
    20     7     8   ar
    21     8     9    1
    22     8    10   ar
    23    18    19    2
    24    19    20    1
    25    20    21    1
    26    21    22    2
    27    22    13    1
    28    21    15    1
    29    10     1   ar
    30    10     5   ar
    31    27    28    1
@<TRIPOS>MOLECULE
*****
 28 31 0 0 0
SMALL
GASTEIGER

@<TRIPOS>ATOM
      1 C         138.8637  142.0815  163.3159 C.ar    1  UNL1        0.2490
      2 N         137.6037  142.8788  163.4792 N.ar    1  UNL1       -0.1863
      3 C         137.5434  144.2951  162.9886 C.ar    1  UNL1        0.2225
      4 N         138.7431  144.9140  162.3349 N.ar    1  UNL1       -0.1420
      5 N         140.0031  144.1168  162.1717 N.ar    1  UNL1       -0.2193
      6 C         141.3352  144.4565  161.5715 C.ar    1  UNL1        0.1371
      7 C         142.2188  143.2503  161.6911 C.ar    1  UNL1        0.1553
      8 C         141.4327  142.1650  162.3652 C.ar    1  UNL1        0.0359
      9 C         141.9289  140.7863  162.6860 C.3     1  UNL1        0.0360
     10 C         140.0634  142.7005  162.6622 C.ar    1  UNL1        0.1353
     11 O         138.9240  140.6653  163.8065 O.3     1  UNL1       -0.4328
     12 C         141.0186  141.0539  171.3619 C.3     1  UNL1        0.0521
     13 C         140.4376  140.7741  170.0076 C.2     1  UNL1        0.0591
     14 C         140.8161  141.4580  168.7274 C.2     1  UNL1        0.0182
     15 C         139.9885  140.8679  167.6243 C.2     1  UNL1        0.0455
     16 C         139.9303  141.1499  166.1522 C.2     1  UNL1        0.1752
     17 F         140.8204  142.1985  165.5537 F       1  UNL1       -0.2009
     18 C         138.9821  140.3833  165.2785 C.2     1  UNL1        0.1706
     19 C         138.0921  139.3346  165.8770 C.2     1  UNL1        0.0201
     20 C         138.1503  139.0526  167.3492 C.3     1  UNL1        0.0751
     21 C         139.0985  139.8192  168.2227 C.2     1  UNL1        0.0653
     22 N         139.3760  139.7613  169.6957 N.2     1  UNL1       -0.2536
     23 O         143.6389  143.1474  161.2194 O.3     1  UNL1       -0.4715
     24 C         144.7610  143.5706  162.1204 C.3     1  UNL1        0.2344
     25 C         145.1754  142.6938  163.2648 C.3     1  UNL1        0.1541
     26 C         144.4303  142.7560  164.5653 C.3     1  UNL1        0.0357
     27 O         146.3347  141.7550  163.1088 O.3     1  UNL1       -0.3806
     28 H         146.4682  141.2659  163.9358 H       1  UNL1        0.2105
@<TRIPOS>BOND
     1    12    13    1
     2    13    14    2
     3    14    15    1
     4    15    16    2
     5    16    17    1
     6    16    18    1
     7    18    11    1
     8    11     1    1
     9     1     2   ar
    10     2     3   ar
    11     3     4   ar
    12     4     5   ar
    13     5     6   ar
    14     6     7   ar
    15     7    23    1
    16    23    24    1
    17    24    25    1
    18    25    26    1
    19    25    27    1
    20     7     8   ar
    21     8     9    1
    22     8    10   ar
    23    18    19    2
    24    19    20    1
    25    20    21    1
    26    21    22    2
    27    22    13    1
    28    21    15    1
    29    10     1   ar
    30    10     5   ar
    31    27    28    1
@<TRIPOS>MOLECULE
*****
 28 31 0 0 0
SMALL
GASTEIGER

@<TRIPOS>ATOM
      1 C         140.5812  139.3164  162.4374 C.ar    1  UNL1        0.2490
      2 N         139.9198  138.1427  161.7780 N.ar    1  UNL1       -0.1863
      3 C         139.0848  138.3456  160.5484 C.ar    1  UNL1        0.2225
      4 N         138.9114  139.7221  159.9783 N.ar    1  UNL1       -0.1420
      5 N         139.5729  140.8958  160.6378 N.ar    1  UNL1       -0.2193
      6 C         139.5829  142.3588  160.3069 C.ar    1  UNL1        0.1371
      7 C         140.4240  143.0601  161.3319 C.ar    1  UNL1        0.1553
      8 C         140.9338  142.0305  162.2963 C.ar    1  UNL1        0.0359
      9 C         141.8149  142.2926  163.4816 C.3     1  UNL1        0.0360
     10 C         140.4078  140.6929  161.8673 C.ar    1  UNL1        0.1353
     11 O         141.4162  139.1135  163.6669 O.3     1  UNL1       -0.4328
     12 C         140.7297  140.7853  171.3061 C.3     1  UNL1        0.0521
     13 C         140.5776  140.4161  169.8603 C.2     1  UNL1        0.0591
     14 C         141.6757  140.3811  168.8390 C.2     1  UNL1        0.0182
     15 C         141.0775  139.9604  167.5293 C.2     1  UNL1        0.0455
     16 C         141.6796  139.7531  166.1713 C.2     1  UNL1        0.1752
     17 F         143.1474  139.9783  165.9593 F       1  UNL1       -0.2009
     18 C         140.8140  139.3207  165.0250 C.2     1  UNL1        0.1706
     19 C         139.3462  139.0956  165.2369 C.2     1  UNL1        0.0201
     20 C         138.7440  139.3029  166.5951 C.3     1  UNL1        0.0751
     21 C         139.6097  139.7352  167.7412 C.2     1  UNL1        0.0653
     22 N         139.3008  140.0169  169.1818 N.2     1  UNL1       -0.2536
     23 O         140.7058  144.5325  161.3835 O.3     1  UNL1       -0.4715
     24 C         139.8477  145.4314  162.2235 C.3     1  UNL1        0.2344
     25 C         138.7928  144.8441  163.1137 C.3     1  UNL1        0.1541
     26 C         139.0588  144.6734  164.5801 C.3     1  UNL1        0.0357
     27 O         137.4721  144.4275  162.5376 O.3     1  UNL1       -0.3806
     28 H         136.9097  144.0708  163.2429 H       1  UNL1        0.2105
@<TRIPOS>BOND
     1    12    13    1
     2    13    14    2
     3    14    15    1
     4    15    16    2
     5    16    17    1
     6    16    18    1
     7    18    11    1
     8    11     1    1
     9     1     2   ar
    10     2     3   ar
    11     3     4   ar
    12     4     5   ar
    13     5     6   ar
    14     6     7   ar
    15     7    23    1
    16    23    24    1
    17    24    25    1
    18    25    26    1
    19    25    27    1
    20     7     8   ar
    21     8     9    1
    22     8    10   ar
    23    18    19    2
    24    19    20    1
    25    20    21    1
    26    21    22    2
    27    22    13    1
    28    21    15    1
    29    10     1   ar
    30    10     5   ar
    31    27    28    1
@<TRIPOS>MOLECULE
*****
 28 31 0 0 0
SMALL
GASTEIGER

@<TRIPOS>ATOM
      1 C         143.9767  140.5337  162.9229 C.ar    1  UNL1        0.2490
      2 N         144.2280  139.1071  162.5337 N.ar    1  UNL1       -0.1863
      3 C         143.9705  138.6572  161.1261 C.ar    1  UNL1        0.2225
      4 N         143.4617  139.6339  160.1077 N.ar    1  UNL1       -0.1420
      5 N         143.2104  141.0605  160.4969 N.ar    1  UNL1       -0.2193
      6 C         142.7134  142.2412  159.7165 C.ar    1  UNL1        0.1371
      7 C         142.6638  143.4208  160.6418 C.ar    1  UNL1        0.1553
      8 C         143.1301  142.9691  161.9940 C.ar    1  UNL1        0.0359
      9 C         143.2393  143.8258  163.2205 C.3     1  UNL1        0.0360
     10 C         143.4679  141.5104  161.9045 C.ar    1  UNL1        0.1353
     11 O         144.2342  140.9836  164.3305 O.3     1  UNL1       -0.4328
     12 C         139.7352  142.6522  170.5432 C.3     1  UNL1        0.0521
     13 C         140.4165  142.1099  169.3218 C.2     1  UNL1        0.0591
     14 C         141.6253  142.6948  168.6536 C.2     1  UNL1        0.0182
     15 C         141.9645  141.8339  167.4730 C.2     1  UNL1        0.0455
     16 C         143.0541  141.9228  166.4460 C.2     1  UNL1        0.1752
     17 F         144.0534  143.0398  166.5075 F       1  UNL1       -0.2009
     18 C         143.1445  140.8947  165.3574 C.2     1  UNL1        0.1706
     19 C         142.1452  139.7777  165.2959 C.2     1  UNL1        0.0201
     20 C         141.0555  139.6889  166.3230 C.3     1  UNL1        0.0751
     21 C         140.9652  140.7170  167.4115 C.2     1  UNL1        0.0653
     22 N         140.0085  140.8875  168.5541 N.2     1  UNL1       -0.2536
     23 O         142.2249  144.8084  160.2785 O.3     1  UNL1       -0.4715
     24 C         140.7728  145.1778  160.3470 C.3     1  UNL1        0.2344
     25 C         140.1274  145.4398  161.6755 C.3     1  UNL1        0.1541
     26 C         139.3332  144.3604  162.3494 C.3     1  UNL1        0.0357
     27 O         140.2762  146.7812  162.3301 O.3     1  UNL1       -0.3806
     28 H         139.8015  146.7826  163.1760 H       1  UNL1        0.2105
@<TRIPOS>BOND
     1    12    13    1
     2    13    14    2
     3    14    15    1
     4    15    16    2
     5    16    17    1
     6    16    18    1
     7    18    11    1
     8    11     1    1
     9     1     2   ar
    10     2     3   ar
    11     3     4   ar
    12     4     5   ar
    13     5     6   ar
    14     6     7   ar
    15     7    23    1
    16    23    24    1
    17    24    25    1
    18    25    26    1
    19    25    27    1
    20     7     8   ar
    21     8     9    1
    22     8    10   ar
    23    18    19    2
    24    19    20    1
    25    20    21    1
    26    21    22    2
    27    22    13    1
    28    21    15    1
    29    10     1   ar
    30    10     5   ar
    31    27    28    1
@<TRIPOS>MOLECULE
*****
 28 31 0 0 0
SMALL
GASTEIGER

@<TRIPOS>ATOM
      1 C         138.9670  139.9162  163.5019 C.ar    1  UNL1        0.2490
      2 N         139.3665  138.4724  163.4270 N.ar    1  UNL1       -0.1863
      3 C         139.9632  137.9237  162.1649 C.ar    1  UNL1        0.2225
      4 N         140.1605  138.8190  160.9777 N.ar    1  UNL1       -0.1420
      5 N         139.7610  140.2628  161.0525 N.ar    1  UNL1       -0.2193
      6 C         139.8344  141.3777  160.0517 C.ar    1  UNL1        0.1371
      7 C         139.2830  142.6154  160.6952 C.ar    1  UNL1        0.1553
      8 C         138.8689  142.2654  162.0938 C.ar    1  UNL1        0.0359
      9 C         138.2653  143.2045  163.0957 C.3     1  UNL1        0.0360
     10 C         139.1643  140.8115  162.3146 C.ar    1  UNL1        0.1353
     11 O         138.3703  140.4649  164.7640 O.3     1  UNL1       -0.4328
     12 C         144.0481  142.4716  169.7998 C.3     1  UNL1        0.0521
     13 C         142.8659  141.9261  169.0548 C.2     1  UNL1        0.0591
     14 C         142.4905  142.2489  167.6389 C.2     1  UNL1        0.0182
     15 C         141.2442  141.4844  167.3039 C.2     1  UNL1        0.0455
     16 C         140.4178  141.4097  166.0543 C.2     1  UNL1        0.1752
     17 F         140.8127  142.2051  164.8454 F       1  UNL1       -0.2009
     18 C         139.1966  140.5396  166.0136 C.2     1  UNL1        0.1706
     19 C         138.8018  139.7442  167.2225 C.2     1  UNL1        0.0201
     20 C         139.6282  139.8189  168.4722 C.3     1  UNL1        0.0751
     21 C         140.8493  140.6890  168.5129 C.2     1  UNL1        0.0653
     22 N         141.8516  140.9620  169.5949 N.2     1  UNL1       -0.2536
     23 O         139.1663  143.9659  160.0530 O.3     1  UNL1       -0.4715
     24 C         140.2922  144.9505  160.1670 C.3     1  UNL1        0.2344
     25 C         140.7261  145.4406  161.5166 C.3     1  UNL1        0.1541
     26 C         141.7728  144.6905  162.2861 C.3     1  UNL1        0.0357
     27 O         140.1135  146.6807  162.0968 O.3     1  UNL1       -0.3806
     28 H         140.5026  146.8566  162.9678 H       1  UNL1        0.2105
@<TRIPOS>BOND
     1    12    13    1
     2    13    14    2
     3    14    15    1
     4    15    16    2
     5    16    17    1
     6    16    18    1
     7    18    11    1
     8    11     1    1
     9     1     2   ar
    10     2     3   ar
    11     3     4   ar
    12     4     5   ar
    13     5     6   ar
    14     6     7   ar
    15     7    23    1
    16    23    24    1
    17    24    25    1
    18    25    26    1
    19    25    27    1
    20     7     8   ar
    21     8     9    1
    22     8    10   ar
    23    18    19    2
    24    19    20    1
    25    20    21    1
    26    21    22    2
    27    22    13    1
    28    21    15    1
    29    10     1   ar
    30    10     5   ar
    31    27    28    1
@<TRIPOS>MOLECULE
*****
 28 31 0 0 0
SMALL
GASTEIGER

@<TRIPOS>ATOM
      1 C         143.6287  142.0929  164.8811 C.ar    1  UNL1        0.2490
      2 N         144.6391  141.5504  163.9143 N.ar    1  UNL1       -0.1863
      3 C         145.0122  140.0982  163.9556 C.ar    1  UNL1        0.2225
      4 N         144.3751  139.1884  164.9637 N.ar    1  UNL1       -0.1420
      5 N         143.3647  139.7309  165.9305 N.ar    1  UNL1       -0.2193
      6 C         142.5753  139.0806  167.0277 C.ar    1  UNL1        0.1371
      7 C         141.7143  140.1308  167.6646 C.ar    1  UNL1        0.1553
      8 C         141.9715  141.4303  166.9609 C.ar    1  UNL1        0.0359
      9 C         141.3227  142.7460  167.2740 C.3     1  UNL1        0.0360
     10 C         142.9915  141.1832  165.8892 C.ar    1  UNL1        0.1353
     11 O         143.2555  143.5452  164.8398 O.3     1  UNL1       -0.4328
     12 C         140.1805  145.6774  157.9390 C.3     1  UNL1        0.0521
     13 C         140.5100  145.3417  159.3633 C.2     1  UNL1        0.0591
     14 C         141.8220  144.8145  159.8641 C.2     1  UNL1        0.0182
     15 C         141.7082  144.6212  161.3472 C.2     1  UNL1        0.0455
     16 C         142.6848  144.1266  162.3727 C.2     1  UNL1        0.1752
     17 F         144.0671  143.7190  161.9569 F       1  UNL1       -0.2009
     18 C         142.2790  144.0397  163.8143 C.2     1  UNL1        0.1706
     19 C         140.8966  144.4474  164.2301 C.2     1  UNL1        0.0201
     20 C         139.9201  144.9420  163.2045 C.3     1  UNL1        0.0751
     21 C         140.3259  145.0289  161.7631 C.2     1  UNL1        0.0653
     22 N         139.5854  145.4741  160.5370 N.2     1  UNL1       -0.2536
     23 O         140.7630  139.9188  168.8048 O.3     1  UNL1       -0.4715
     24 C         141.2121  140.1729  170.2133 C.3     1  UNL1        0.2344
     25 C         140.9836  141.5151  170.8427 C.3     1  UNL1        0.1541
     26 C         139.7722  142.3196  170.4748 C.3     1  UNL1        0.0357
     27 O         141.9665  142.0528  171.8401 O.3     1  UNL1       -0.3806
     28 H         141.6716  142.9244  172.1471 H       1  UNL1        0.2105
@<TRIPOS>BOND
     1    12    13    1
     2    13    14    2
     3    14    15    1
     4    15    16    2
     5    16    17    1
     6    16    18    1
     7    18    11    1
     8    11     1    1
     9     1     2   ar
    10     2     3   ar
    11     3     4   ar
    12     4     5   ar
    13     5     6   ar
    14     6     7   ar
    15     7    23    1
    16    23    24    1
    17    24    25    1
    18    25    26    1
    19    25    27    1
    20     7     8   ar
    21     8     9    1
    22     8    10   ar
    23    18    19    2
    24    19    20    1
    25    20    21    1
    26    21    22    2
    27    22    13    1
    28    21    15    1
    29    10     1   ar
    30    10     5   ar
    31    27    28    1
@<TRIPOS>MOLECULE
*****
 28 31 0 0 0
SMALL
GASTEIGER

@<TRIPOS>ATOM
      1 C         142.9400  141.3720  162.8243 C.ar    1  UNL1        0.2490
      2 N         144.3863  141.7497  162.7001 N.ar    1  UNL1       -0.1863
      3 C         144.7657  143.1016  162.1723 C.ar    1  UNL1        0.2225
      4 N         143.6988  144.0757  161.7688 N.ar    1  UNL1       -0.1420
      5 N         142.2525  143.6980  161.8931 N.ar    1  UNL1       -0.2193
      6 C         140.9898  144.4432  161.5767 C.ar    1  UNL1        0.1371
      7 C         139.8299  143.5519  161.9089 C.ar    1  UNL1        0.1553
      8 C         140.3759  142.2559  162.4307 C.ar    1  UNL1        0.0359
      9 C         139.5666  141.0766  162.8828 C.3     1  UNL1        0.0360
     10 C         141.8731  142.3461  162.4209 C.ar    1  UNL1        0.1353
     11 O         142.5606  140.0202  163.3521 O.3     1  UNL1       -0.4328
     12 C         141.9152  140.6980  171.1462 C.3     1  UNL1        0.0521
     13 C         142.1798  140.3250  169.7176 C.2     1  UNL1        0.0591
     14 C         141.7580  141.1075  168.5094 C.2     1  UNL1        0.0182
     15 C         142.2301  140.3701  167.2914 C.2     1  UNL1        0.0455
     16 C         142.1024  140.6663  165.8265 C.2     1  UNL1        0.1752
     17 F         141.3889  141.9046  165.3711 F       1  UNL1       -0.2009
     18 C         142.6882  139.7240  164.8170 C.2     1  UNL1        0.1706
     19 C         143.4017  138.4857  165.2725 C.2     1  UNL1        0.0201
     20 C         143.5294  138.1896  166.7374 C.3     1  UNL1        0.0751
     21 C         142.9436  139.1318  167.7469 C.2     1  UNL1        0.0653
     22 N         142.9125  139.1039  169.2463 N.2     1  UNL1       -0.2536
     23 O         138.3789  143.8963  161.7478 O.3     1  UNL1       -0.4715
     24 C         137.6158  144.4855  162.8968 C.3     1  UNL1        0.2344
     25 C         137.8455  143.9771  164.2892 C.3     1  UNL1        0.1541
     26 C         138.6360  144.7964  165.2659 C.3     1  UNL1        0.0357
     27 O         137.2848  142.6494  164.7049 O.3     1  UNL1       -0.3806
     28 H         137.5231  142.4726  165.6284 H       1  UNL1        0.2105
@<TRIPOS>BOND
     1    12    13    1
     2    13    14    2
     3    14    15    1
     4    15    16    2
     5    16    17    1
     6    16    18    1
     7    18    11    1
     8    11     1    1
     9     1     2   ar
    10     2     3   ar
    11     3     4   ar
    12     4     5   ar
    13     5     6   ar
    14     6     7   ar
    15     7    23    1
    16    23    24    1
    17    24    25    1
    18    25    26    1
    19    25    27    1
    20     7     8   ar
    21     8     9    1
    22     8    10   ar
    23    18    19    2
    24    19    20    1
    25    20    21    1
    26    21    22    2
    27    22    13    1
    28    21    15    1
    29    10     1   ar
    30    10     5   ar
    31    27    28    1
@<TRIPOS>MOLECULE
*****
 28 31 0 0 0
SMALL
GASTEIGER

@<TRIPOS>ATOM
      1 C         140.7348  142.2535  167.9468 C.ar    1  UNL1        0.2490
      2 N         140.2784  143.4936  168.6565 N.ar    1  UNL1       -0.1863
      3 C         140.5308  143.6525  170.1265 C.ar    1  UNL1        0.2225
      4 N         141.2396  142.5712  170.8869 N.ar    1  UNL1       -0.1420
      5 N         141.6961  141.3311  170.1773 N.ar    1  UNL1       -0.2193
      6 C         142.4140  140.1054  170.6594 C.ar    1  UNL1        0.1371
      7 C         142.6053  139.1891  169.4874 C.ar    1  UNL1        0.1553
      8 C         142.0056  139.8484  168.2809 C.ar    1  UNL1        0.0359
      9 C         141.9734  139.2831  166.8918 C.3     1  UNL1        0.0360
     10 C         141.4437  141.1722  168.7072 C.ar    1  UNL1        0.1353
     11 O         140.4824  142.0946  166.4768 O.3     1  UNL1       -0.4328
     12 C         144.4309  142.5634  159.7082 C.3     1  UNL1        0.0521
     13 C         143.9234  142.5629  161.1198 C.2     1  UNL1        0.0591
     14 C         142.5398  142.1855  161.5592 C.2     1  UNL1        0.0182
     15 C         142.4717  142.3290  163.0507 C.2     1  UNL1        0.0455
     16 C         141.3614  142.0955  164.0319 C.2     1  UNL1        0.1752
     17 F         140.0198  141.6293  163.5494 F       1  UNL1       -0.2009
     18 C         141.5927  142.3281  165.4956 C.2     1  UNL1        0.1706
     19 C         142.9343  142.7943  165.9781 C.2     1  UNL1        0.0201
     20 C         144.0446  143.0279  164.9969 C.3     1  UNL1        0.0751
     21 C         143.8133  142.7952  163.5332 C.2     1  UNL1        0.0653
     22 N         144.7105  142.9398  162.3398 N.2     1  UNL1       -0.2536
     23 O         143.2781  137.8487  169.5167 O.3     1  UNL1       -0.4715
     24 C         143.6924  137.2460  170.8263 C.3     1  UNL1        0.2344
     25 C         144.6645  136.1040  170.8522 C.3     1  UNL1        0.1541
     26 C         144.6964  135.1727  172.0277 C.3     1  UNL1        0.0357
     27 O         145.6048  135.8932  169.7026 O.3     1  UNL1       -0.3806
     28 H         146.1609  135.1180  169.8777 H       1  UNL1        0.2105
@<TRIPOS>BOND
     1    12    13    1
     2    13    14    2
     3    14    15    1
     4    15    16    2
     5    16    17    1
     6    16    18    1
     7    18    11    1
     8    11     1    1
     9     1     2   ar
    10     2     3   ar
    11     3     4   ar
    12     4     5   ar
    13     5     6   ar
    14     6     7   ar
    15     7    23    1
    16    23    24    1
    17    24    25    1
    18    25    26    1
    19    25    27    1
    20     7     8   ar
    21     8     9    1
    22     8    10   ar
    23    18    19    2
    24    19    20    1
    25    20    21    1
    26    21    22    2
    27    22    13    1
    28    21    15    1
    29    10     1   ar
    30    10     5   ar
    31    27    28    1
@<TRIPOS>MOLECULE
*****
 28 31 0 0 0
SMALL
GASTEIGER

@<TRIPOS>ATOM
      1 C         143.2860  141.0236  162.1251 C.ar    1  UNL1        0.2490
      2 N         143.9744  139.9541  161.3299 N.ar    1  UNL1       -0.1863
      3 C         143.3477  139.4358  160.0696 C.ar    1  UNL1        0.2225
      4 N         142.0325  139.9870  159.6043 N.ar    1  UNL1       -0.1420
      5 N         141.3441  141.0565  160.3994 N.ar    1  UNL1       -0.2193
      6 C         140.0503  141.7862  160.1911 C.ar    1  UNL1        0.1371
      7 C         139.8773  142.7555  161.3227 C.ar    1  UNL1        0.1553
      8 C         141.0643  142.6248  162.2304 C.ar    1  UNL1        0.0359
      9 C         141.3030  143.4069  163.4879 C.3     1  UNL1        0.0360
     10 C         141.9709  141.5748  161.6598 C.ar    1  UNL1        0.1353
     11 O         143.9128  141.5419  163.3854 O.3     1  UNL1       -0.4328
     12 C         142.2126  140.6700  170.9994 C.3     1  UNL1        0.0521
     13 C         142.5225  140.5491  169.5367 C.2     1  UNL1        0.0591
     14 C         142.7922  141.6857  168.5958 C.2     1  UNL1        0.0182
     15 C         143.0535  141.1095  167.2357 C.2     1  UNL1        0.0455
     16 C         143.3760  141.7512  165.9188 C.2     1  UNL1        0.1752
     17 F         143.4843  143.2439  165.8184 F       1  UNL1       -0.2009
     18 C         143.5903  140.9002  164.7023 C.2     1  UNL1        0.1706
     19 C         143.4820  139.4075  164.8027 C.2     1  UNL1        0.0201
     20 C         143.1595  138.7658  166.1196 C.3     1  UNL1        0.0751
     21 C         142.9452  139.6168  167.3361 C.2     1  UNL1        0.0653
     22 N         142.6170  139.2705  168.7582 N.2     1  UNL1       -0.2536
     23 O         138.7206  143.6913  161.5131 O.3     1  UNL1       -0.4715
     24 C         137.7545  143.4701  162.6390 C.3     1  UNL1        0.2344
     25 C         137.5666  142.0944  163.2068 C.3     1  UNL1        0.1541
     26 C         138.1402  141.7526  164.5500 C.3     1  UNL1        0.0357
     27 O         136.8051  141.0606  162.4313 O.3     1  UNL1       -0.3806
     28 H         136.7768  140.2332  162.9368 H       1  UNL1        0.2105
@<TRIPOS>BOND
     1    12    13    1
     2    13    14    2
     3    14    15    1
     4    15    16    2
     5    16    17    1
     6    16    18    1
     7    18    11    1
     8    11     1    1
     9     1     2   ar
    10     2     3   ar
    11     3     4   ar
    12     4     5   ar
    13     5     6   ar
    14     6     7   ar
    15     7    23    1
    16    23    24    1
    17    24    25    1
    18    25    26    1
    19    25    27    1
    20     7     8   ar
    21     8     9    1
    22     8    10   ar
    23    18    19    2
    24    19    20    1
    25    20    21    1
    26    21    22    2
    27    22    13    1
    28    21    15    1
    29    10     1   ar
    30    10     5   ar
    31    27    28    1
