@<TRIPOS>MOLECULE
*****
 33 37 0 0 0
SMALL
GASTEIGER

@<TRIPOS>ATOM
      1 C         144.2797  140.9945  158.3761 C.ar    1  UNL1        0.1317
      2 C         143.6293  142.1513  159.0750 C.ar    1  UNL1        0.0346
      3 C         142.7889  141.9144  160.2948 C.ar    1  UNL1        0.0121
      4 C         142.5991  140.5206  160.8155 C.ar    1  UNL1        0.1076
      5 C         143.2496  139.3637  160.1165 C.ar    1  UNL1        0.1080
      6 N         144.0899  139.6007  158.8968 N.ar    1  UNL1       -0.2289
      7 C         148.4836  142.5929  153.2100 C.3     1  UNL1        0.0375
      8 C         147.7040  141.5468  152.4697 C.3     1  UNL1        0.1423
      9 O         146.6638  140.9982  153.4010 O.3     1  UNL1       -0.3584
     10 C         146.8006  141.7052  154.7169 C.3     1  UNL1        0.0961
     11 C         145.7053  140.6809  154.6856 C.3     1  UNL1        0.0487
     12 C         144.8651  140.4440  155.9053 C.3     1  UNL1        0.0946
     13 N         145.1201  141.2314  157.1563 N.pl3   1  UNL1       -0.2931
     14 C         146.2154  142.2558  157.1876 C.3     1  UNL1        0.0946
     15 C         147.0556  142.4927  155.9678 C.3     1  UNL1        0.0487
     16 C         147.9253  142.6908  154.5988 C.3     1  UNL1        0.0302
     17 C         149.6216  143.3994  152.6584 C.3     1  UNL1        0.0443
     18 O         151.4059  142.1971  154.1145 O.co2   1  UNL1       -0.5492
     19 C         150.9441  143.4121  153.3660 C.2     1  UNL1        0.0504
     20 O         151.8049  144.6399  153.3251 O.co2   1  UNL1       -0.5492
     21 C         141.7588  140.2836  162.0352 C.2     1  UNL1        0.3767
     22 N         141.0099  139.0249  162.3590 N.2     1  UNL1       -0.0308
     23 C         140.3081  139.2270  163.6692 C.2     1  UNL1        0.2320
     24 C         139.4228  138.3299  164.4825 C.2     1  UNL1        0.0537
     25 C         138.8526  138.8166  165.7818 C.2     1  UNL1        0.0714
     26 C         139.1678  140.2002  166.2678 C.2     1  UNL1       -0.0133
     27 C         140.0531  141.0973  165.4545 C.3     1  UNL1        0.1037
     28 C         140.6233  140.6107  164.1552 C.2     1  UNL1        0.2178
     29 N         141.5198  141.2637  163.1453 N.2     1  UNL1       -0.0347
     30 C         137.9673  137.9195  166.5951 C.3     1  UNL1        0.4184
     31 F         137.0820  137.0224  167.4084 F       1  UNL1       -0.1659
     32 F         138.2328  136.7927  165.6412 F       1  UNL1       -0.1659
     33 F         137.7019  139.0462  167.5490 F       1  UNL1       -0.1659
@<TRIPOS>UNITY_ATOM_ATTR
18 1
charge -1
@<TRIPOS>BOND
     1    18    19   ar
     2    19    20   ar
     3    19    17    1
     4     7    17    1
     5     7     8    1
     6     8     9    1
     7     9    10    1
     8    10    11    1
     9    11    12    1
    10    12    13    1
    11    13     1    1
    12     1     2   ar
    13     2     3   ar
    14     3     4   ar
    15     4    21    1
    16    21    22    2
    17    22    23    1
    18    23    24    2
    19    24    25    1
    20    25    30    1
    21    30    31    1
    22    30    32    1
    23    30    33    1
    24    25    26    2
    25    26    27    1
    26    27    28    1
    27    28    29    2
    28     4     5   ar
    29     5     6   ar
    30    13    14    1
    31    14    15    1
    32    10    16    1
    33    16     7    1
    34    15    10    1
    35     6     1   ar
    36    29    21    1
    37    28    23    1
@<TRIPOS>MOLECULE
*****
 33 37 0 0 0
SMALL
GASTEIGER

@<TRIPOS>ATOM
      1 C         139.8483  144.8583  158.1844 C.ar    1  UNL1        0.1317
      2 C         139.4111  143.4264  158.0928 C.ar    1  UNL1        0.0346
      3 C         139.2585  142.6075  159.3403 C.ar    1  UNL1        0.0121
      4 C         139.5432  143.2205  160.6793 C.ar    1  UNL1        0.1076
      5 C         139.9805  144.6525  160.7709 C.ar    1  UNL1        0.1080
      6 N         140.1330  145.4713  159.5234 N.ar    1  UNL1       -0.2289
      7 C         140.0501  149.0748  152.7903 C.3     1  UNL1        0.0375
      8 C         141.0318  148.0752  152.2542 C.3     1  UNL1        0.1423
      9 O         141.1900  146.9875  153.2751 O.3     1  UNL1       -0.3584
     10 C         140.3061  147.3148  154.4420 C.3     1  UNL1        0.0961
     11 C         141.0800  146.0398  154.6015 C.3     1  UNL1        0.0487
     12 C         140.9274  145.2210  155.8489 C.3     1  UNL1        0.0946
     13 N         140.0009  145.6772  156.9369 N.pl3   1  UNL1       -0.2931
     14 C         139.2271  146.9522  156.7773 C.3     1  UNL1        0.0946
     15 C         139.3797  147.7710  155.5299 C.3     1  UNL1        0.0487
     16 C         139.6016  148.6048  154.1423 C.3     1  UNL1        0.0302
     17 C         139.5966  150.3247  152.0962 C.3     1  UNL1        0.0443
     18 O         138.4232  152.5869  152.6015 O.co2   1  UNL1       -0.5492
     19 C         139.5459  151.6228  152.8461 C.2     1  UNL1        0.0504
     20 O         140.6179  151.9567  153.8406 O.co2   1  UNL1       -0.5492
     21 C         139.3906  142.4017  161.9268 C.2     1  UNL1        0.3767
     22 N         138.7236  141.0619  162.0259 N.2     1  UNL1       -0.0308
     23 C         138.7990  140.6110  163.4545 C.2     1  UNL1        0.2320
     24 C         138.3100  139.3713  164.1429 C.2     1  UNL1        0.0537
     25 C         138.5348  139.1928  165.6152 C.2     1  UNL1        0.0714
     26 C         139.2484  140.2540  166.3991 C.2     1  UNL1       -0.0133
     27 C         139.7374  141.4937  165.7107 C.3     1  UNL1        0.1037
     28 C         139.5127  141.6723  164.2384 C.2     1  UNL1        0.2178
     29 N         139.8783  142.7790  163.2942 N.2     1  UNL1       -0.0347
     30 C         138.0458  137.9530  166.3037 C.3     1  UNL1        0.4184
     31 F         137.5568  136.7132  166.9921 F       1  UNL1       -0.1659
     32 F         137.2445  138.7953  167.2515 F       1  UNL1       -0.1659
     33 F         138.8470  137.1107  165.3558 F       1  UNL1       -0.1659
@<TRIPOS>UNITY_ATOM_ATTR
18 1
charge -1
@<TRIPOS>BOND
     1    18    19   ar
     2    19    20   ar
     3    19    17    1
     4     7    17    1
     5     7     8    1
     6     8     9    1
     7     9    10    1
     8    10    11    1
     9    11    12    1
    10    12    13    1
    11    13     1    1
    12     1     2   ar
    13     2     3   ar
    14     3     4   ar
    15     4    21    1
    16    21    22    2
    17    22    23    1
    18    23    24    2
    19    24    25    1
    20    25    30    1
    21    30    31    1
    22    30    32    1
    23    30    33    1
    24    25    26    2
    25    26    27    1
    26    27    28    1
    27    28    29    2
    28     4     5   ar
    29     5     6   ar
    30    13    14    1
    31    14    15    1
    32    10    16    1
    33    16     7    1
    34    15    10    1
    35     6     1   ar
    36    29    21    1
    37    28    23    1
@<TRIPOS>MOLECULE
*****
 33 37 0 0 0
SMALL
GASTEIGER

@<TRIPOS>ATOM
      1 C         140.0736  143.8487  159.4095 C.ar    1  UNL1        0.1317
      2 C         141.2108  143.8191  160.3872 C.ar    1  UNL1        0.0346
      3 C         141.0351  143.1582  161.7222 C.ar    1  UNL1        0.0121
      4 C         139.7222  142.5268  162.0796 C.ar    1  UNL1        0.1076
      5 C         138.5850  142.5564  161.1018 C.ar    1  UNL1        0.1080
      6 N         138.7607  143.2174  159.7668 N.ar    1  UNL1       -0.2289
      7 C         140.5845  147.4841  153.6269 C.3     1  UNL1        0.0375
      8 C         141.1573  146.2131  153.0730 C.3     1  UNL1        0.1423
      9 O         141.1673  145.1918  154.1716 O.3     1  UNL1       -0.3584
     10 C         140.6006  145.8315  155.4044 C.3     1  UNL1        0.0961
     11 C         141.0088  144.4004  155.5923 C.3     1  UNL1        0.0487
     12 C         140.8331  143.7395  156.9273 C.3     1  UNL1        0.0946
     13 N         140.2492  144.5097  158.0744 N.pl3   1  UNL1       -0.2931
     14 C         139.8410  145.9408  157.8865 C.3     1  UNL1        0.0946
     15 C         140.0167  146.6017  156.5515 C.3     1  UNL1        0.0487
     16 C         140.2404  147.2482  155.0677 C.3     1  UNL1        0.0302
     17 C         140.3899  148.7657  152.8724 C.3     1  UNL1        0.0443
     18 O         139.1202  150.4942  154.3385 O.co2   1  UNL1       -0.5492
     19 C         140.3606  150.0723  153.6084 C.2     1  UNL1        0.0504
     20 O         141.5719  150.9571  153.6144 O.co2   1  UNL1       -0.5492
     21 C         139.5465  141.8659  163.4145 C.2     1  UNL1        0.3767
     22 N         140.2485  142.2444  164.6849 N.2     1  UNL1       -0.0308
     23 C         139.7738  141.3228  165.7691 C.2     1  UNL1        0.2320
     24 C         140.1194  141.2244  167.2254 C.2     1  UNL1        0.0537
     25 C         139.4695  140.1779  168.0814 C.2     1  UNL1        0.0714
     26 C         138.4742  139.2299  167.4810 C.2     1  UNL1       -0.0133
     27 C         138.1286  139.3283  166.0247 C.3     1  UNL1        0.1037
     28 C         138.7784  140.3747  165.1687 C.2     1  UNL1        0.2178
     29 N         138.6380  140.7103  163.7135 N.2     1  UNL1       -0.0347
     30 C         139.8150  140.0796  169.5378 C.3     1  UNL1        0.4184
     31 F         140.1605  139.9812  170.9941 F       1  UNL1       -0.1659
     32 F         138.4574  140.6077  169.8955 F       1  UNL1       -0.1659
     33 F         141.1726  139.5515  169.1800 F       1  UNL1       -0.1659
@<TRIPOS>UNITY_ATOM_ATTR
18 1
charge -1
@<TRIPOS>BOND
     1    18    19   ar
     2    19    20   ar
     3    19    17    1
     4     7    17    1
     5     7     8    1
     6     8     9    1
     7     9    10    1
     8    10    11    1
     9    11    12    1
    10    12    13    1
    11    13     1    1
    12     1     2   ar
    13     2     3   ar
    14     3     4   ar
    15     4    21    1
    16    21    22    2
    17    22    23    1
    18    23    24    2
    19    24    25    1
    20    25    30    1
    21    30    31    1
    22    30    32    1
    23    30    33    1
    24    25    26    2
    25    26    27    1
    26    27    28    1
    27    28    29    2
    28     4     5   ar
    29     5     6   ar
    30    13    14    1
    31    14    15    1
    32    10    16    1
    33    16     7    1
    34    15    10    1
    35     6     1   ar
    36    29    21    1
    37    28    23    1
@<TRIPOS>MOLECULE
*****
 33 37 0 0 0
SMALL
GASTEIGER

@<TRIPOS>ATOM
      1 C         142.1443  140.4466  162.0182 C.ar    1  UNL1        0.1317
      2 C         142.7503  139.2868  161.2849 C.ar    1  UNL1        0.0346
      3 C         143.5517  139.5232  160.0392 C.ar    1  UNL1        0.0121
      4 C         143.7471  140.9193  159.5267 C.ar    1  UNL1        0.1076
      5 C         143.1410  142.0791  160.2599 C.ar    1  UNL1        0.1080
      6 N         142.3396  141.8427  161.5057 N.ar    1  UNL1       -0.2289
      7 C         138.9560  139.8408  168.0500 C.3     1  UNL1        0.0375
      8 C         138.0573  138.9069  167.2947 C.3     1  UNL1        0.1423
      9 O         138.5419  138.8431  165.8765 O.3     1  UNL1       -0.3584
     10 C         139.7399  139.7376  165.7553 C.3     1  UNL1        0.0961
     11 C         139.3625  139.0470  164.4784 C.3     1  UNL1        0.0487
     12 C         140.1639  139.2833  163.2327 C.3     1  UNL1        0.0946
     13 N         141.3428  140.2102  163.2639 N.pl3   1  UNL1       -0.2931
     14 C         141.7203  140.9008  164.5409 C.3     1  UNL1        0.0946
     15 C         140.9189  140.6645  165.7866 C.3     1  UNL1        0.0487
     16 C         139.9958  140.3541  167.0987 C.3     1  UNL1        0.0302
     17 C         138.8358  140.1985  169.5017 C.3     1  UNL1        0.0443
     18 O         141.1064  139.2014  170.2763 O.co2   1  UNL1       -0.5492
     19 C         140.0641  140.2769  170.3590 C.2     1  UNL1        0.0504
     20 O         140.2502  141.4309  171.2991 O.co2   1  UNL1       -0.5492
     21 C         144.5485  141.1556  158.2809 C.2     1  UNL1        0.3767
     22 N         145.5020  142.2899  158.0480 N.2     1  UNL1       -0.0308
     23 C         146.0799  142.1345  156.6725 C.2     1  UNL1        0.2320
     24 C         147.0722  142.9544  155.9022 C.2     1  UNL1        0.0537
     25 C         147.4680  142.5439  154.5148 C.2     1  UNL1        0.0714
     26 C         146.8716  141.3137  153.8977 C.2     1  UNL1       -0.0133
     27 C         145.8794  140.4939  154.6680 C.3     1  UNL1        0.1037
     28 C         145.4835  140.9042  156.0554 C.2     1  UNL1        0.2178
     29 N         144.5371  140.2993  157.0494 N.2     1  UNL1       -0.0347
     30 C         148.4603  143.3638  153.7445 C.3     1  UNL1        0.4184
     31 F         149.4525  144.1836  152.9743 F       1  UNL1       -0.1659
     32 F         149.4122  142.2046  153.7370 F       1  UNL1       -0.1659
     33 F         147.5083  144.5229  153.7520 F       1  UNL1       -0.1659
@<TRIPOS>UNITY_ATOM_ATTR
18 1
charge -1
@<TRIPOS>BOND
     1    18    19   ar
     2    19    20   ar
     3    19    17    1
     4     7    17    1
     5     7     8    1
     6     8     9    1
     7     9    10    1
     8    10    11    1
     9    11    12    1
    10    12    13    1
    11    13     1    1
    12     1     2   ar
    13     2     3   ar
    14     3     4   ar
    15     4    21    1
    16    21    22    2
    17    22    23    1
    18    23    24    2
    19    24    25    1
    20    25    30    1
    21    30    31    1
    22    30    32    1
    23    30    33    1
    24    25    26    2
    25    26    27    1
    26    27    28    1
    27    28    29    2
    28     4     5   ar
    29     5     6   ar
    30    13    14    1
    31    14    15    1
    32    10    16    1
    33    16     7    1
    34    15    10    1
    35     6     1   ar
    36    29    21    1
    37    28    23    1
@<TRIPOS>MOLECULE
*****
 33 37 0 0 0
SMALL
GASTEIGER

@<TRIPOS>ATOM
      1 C         142.6142  139.6354  162.6838 C.ar    1  UNL1        0.1317
      2 C         142.6193  138.1668  162.3786 C.ar    1  UNL1        0.0346
      3 C         142.5593  137.6963  160.9555 C.ar    1  UNL1        0.0121
      4 C         142.4940  138.6945  159.8377 C.ar    1  UNL1        0.1076
      5 C         142.4889  140.1631  160.1430 C.ar    1  UNL1        0.1080
      6 N         142.5489  140.6335  161.5661 N.ar    1  UNL1       -0.2289
      7 C         142.5718  141.1288  169.3684 C.3     1  UNL1        0.0375
      8 C         143.2019  142.4131  168.9172 C.3     1  UNL1        0.1423
      9 O         143.3395  142.3625  167.4243 O.3     1  UNL1       -0.3584
     10 C         142.7944  141.0469  166.9529 C.3     1  UNL1        0.0961
     11 C         143.3101  141.9239  165.8507 C.3     1  UNL1        0.0487
     12 C         143.2500  141.4533  164.4277 C.3     1  UNL1        0.0946
     13 N         142.6742  140.1059  164.1069 N.pl3   1  UNL1       -0.2931
     14 C         142.1586  139.2289  165.2092 C.3     1  UNL1        0.0946
     15 C         142.2187  139.6994  166.6322 C.3     1  UNL1        0.0487
     16 C         142.3199  140.2845  168.1545 C.3     1  UNL1        0.0302
     17 C         142.2500  140.7546  170.7848 C.3     1  UNL1        0.0443
     18 O         139.8446  139.8025  171.0243 O.co2   1  UNL1       -0.5492
     19 C         140.8456  140.8863  171.2948 C.2     1  UNL1        0.0504
     20 O         140.4421  142.1020  172.0754 O.co2   1  UNL1       -0.5492
     21 C         142.4340  138.2241  158.4147 C.2     1  UNL1        0.3767
     22 N         142.3886  136.7955  157.9595 N.2     1  UNL1       -0.0308
     23 C         142.3353  136.7881  156.4605 C.2     1  UNL1        0.2320
     24 C         142.2770  135.6687  155.4637 C.2     1  UNL1        0.0537
     25 C         142.2312  135.9733  153.9957 C.2     1  UNL1        0.0714
     26 C         142.2437  137.3973  153.5244 C.2     1  UNL1       -0.0133
     27 C         142.3019  138.5167  154.5212 C.3     1  UNL1        0.1037
     28 C         142.3477  138.2122  155.9892 C.2     1  UNL1        0.2178
     29 N         142.4087  139.0996  157.1970 N.2     1  UNL1       -0.0347
     30 C         142.1730  134.8539  152.9989 C.3     1  UNL1        0.4184
     31 F         142.1147  133.7345  152.0021 F       1  UNL1       -0.1659
     32 F         141.6338  135.8003  151.9676 F       1  UNL1       -0.1659
     33 F         142.7122  133.9075  154.0302 F       1  UNL1       -0.1659
@<TRIPOS>UNITY_ATOM_ATTR
18 1
charge -1
@<TRIPOS>BOND
     1    18    19   ar
     2    19    20   ar
     3    19    17    1
     4     7    17    1
     5     7     8    1
     6     8     9    1
     7     9    10    1
     8    10    11    1
     9    11    12    1
    10    12    13    1
    11    13     1    1
    12     1     2   ar
    13     2     3   ar
    14     3     4   ar
    15     4    21    1
    16    21    22    2
    17    22    23    1
    18    23    24    2
    19    24    25    1
    20    25    30    1
    21    30    31    1
    22    30    32    1
    23    30    33    1
    24    25    26    2
    25    26    27    1
    26    27    28    1
    27    28    29    2
    28     4     5   ar
    29     5     6   ar
    30    13    14    1
    31    14    15    1
    32    10    16    1
    33    16     7    1
    34    15    10    1
    35     6     1   ar
    36    29    21    1
    37    28    23    1
@<TRIPOS>MOLECULE
*****
 33 37 0 0 0
SMALL
GASTEIGER

@<TRIPOS>ATOM
      1 C         143.8974  141.5630  160.4201 C.ar    1  UNL1        0.1317
      2 C         144.5948  142.6096  161.2375 C.ar    1  UNL1        0.0346
      3 C         144.2319  142.7994  162.6805 C.ar    1  UNL1        0.0121
      4 C         143.1715  141.9426  163.3061 C.ar    1  UNL1        0.1076
      5 C         142.4740  140.8959  162.4887 C.ar    1  UNL1        0.1080
      6 N         142.8370  140.7062  161.0457 N.ar    1  UNL1       -0.2289
      7 C         145.9912  141.3030  153.9036 C.3     1  UNL1        0.0375
      8 C         145.0978  140.0998  153.8372 C.3     1  UNL1        0.1423
      9 O         144.4766  139.9086  155.1892 O.3     1  UNL1       -0.3584
     10 C         144.9860  140.9935  156.0911 C.3     1  UNL1        0.0961
     11 C         144.0310  140.0465  156.7551 C.3     1  UNL1        0.0487
     12 C         143.6681  140.2363  158.1981 C.3     1  UNL1        0.0946
     13 N         144.2603  141.3732  158.9770 N.pl3   1  UNL1       -0.2931
     14 C         145.2153  142.3203  158.3131 C.3     1  UNL1        0.0946
     15 C         145.5782  142.1304  156.8701 C.3     1  UNL1        0.0487
     16 C         145.9221  141.8554  155.2965 C.3     1  UNL1        0.0302
     17 C         146.8098  141.8567  152.7753 C.3     1  UNL1        0.0443
     18 O         149.2808  141.7312  153.5679 O.co2   1  UNL1       -0.5492
     19 C         148.1188  142.5318  153.0593 C.2     1  UNL1        0.0504
     20 O         148.2659  144.0075  152.8346 O.co2   1  UNL1       -0.5492
     21 C         142.8086  142.1323  164.7491 C.2     1  UNL1        0.3767
     22 N         141.4448  142.4628  165.2791 N.2     1  UNL1       -0.0308
     23 C         141.5390  142.5597  166.7730 C.2     1  UNL1        0.2320
     24 C         140.5137  142.8593  167.8260 C.2     1  UNL1        0.0537
     25 C         140.9104  142.8883  169.2724 C.2     1  UNL1        0.0714
     26 C         142.3324  142.6177  169.6656 C.2     1  UNL1       -0.0133
     27 C         143.3577  142.3181  168.6126 C.3     1  UNL1        0.1037
     28 C         142.9611  142.2890  167.1663 C.2     1  UNL1        0.2178
     29 N         143.7457  142.0249  165.9155 N.2     1  UNL1       -0.0347
     30 C         139.8851  143.1880  170.3254 C.3     1  UNL1        0.4184
     31 F         138.8597  143.4876  171.3785 F       1  UNL1       -0.1659
     32 F         140.2523  144.6413  170.2695 F       1  UNL1       -0.1659
     33 F         139.5179  141.7347  170.3814 F       1  UNL1       -0.1659
@<TRIPOS>UNITY_ATOM_ATTR
18 1
charge -1
@<TRIPOS>BOND
     1    18    19   ar
     2    19    20   ar
     3    19    17    1
     4     7    17    1
     5     7     8    1
     6     8     9    1
     7     9    10    1
     8    10    11    1
     9    11    12    1
    10    12    13    1
    11    13     1    1
    12     1     2   ar
    13     2     3   ar
    14     3     4   ar
    15     4    21    1
    16    21    22    2
    17    22    23    1
    18    23    24    2
    19    24    25    1
    20    25    30    1
    21    30    31    1
    22    30    32    1
    23    30    33    1
    24    25    26    2
    25    26    27    1
    26    27    28    1
    27    28    29    2
    28     4     5   ar
    29     5     6   ar
    30    13    14    1
    31    14    15    1
    32    10    16    1
    33    16     7    1
    34    15    10    1
    35     6     1   ar
    36    29    21    1
    37    28    23    1
@<TRIPOS>MOLECULE
*****
 33 37 0 0 0
SMALL
GASTEIGER

@<TRIPOS>ATOM
      1 C         141.4310  138.7786  160.0559 C.ar    1  UNL1        0.1317
      2 C         140.3908  138.3826  161.0615 C.ar    1  UNL1        0.0346
      3 C         140.4141  138.9772  162.4385 C.ar    1  UNL1        0.0121
      4 C         141.4775  139.9678  162.8098 C.ar    1  UNL1        0.1076
      5 C         142.5177  140.3637  161.8042 C.ar    1  UNL1        0.1080
      6 N         142.4944  139.7692  160.4273 N.ar    1  UNL1       -0.2289
      7 C         140.5995  136.2562  153.7423 C.3     1  UNL1        0.0375
      8 C         142.0519  135.9037  153.8700 C.3     1  UNL1        0.1423
      9 O         142.5228  136.3603  155.2191 O.3     1  UNL1       -0.3584
     10 C         141.3614  136.9949  155.9252 C.3     1  UNL1        0.0961
     11 C         142.6308  136.9869  156.7242 C.3     1  UNL1        0.0487
     12 C         142.6540  137.5815  158.1011 C.3     1  UNL1        0.0946
     13 N         141.4078  138.1840  158.6790 N.pl3   1  UNL1       -0.2931
     14 C         140.1384  138.1920  157.8799 C.3     1  UNL1        0.0946
     15 C         140.1152  137.5974  156.5030 C.3     1  UNL1        0.0487
     16 C         140.1727  136.9305  155.0124 C.3     1  UNL1        0.0302
     17 C         139.7270  135.9823  152.5534 C.3     1  UNL1        0.0443
     18 O         138.7610  138.3403  152.0469 O.co2   1  UNL1       -0.5492
     19 C         138.5536  136.8707  152.2636 C.2     1  UNL1        0.0504
     20 O         137.1728  136.2894  152.1906 O.co2   1  UNL1       -0.5492
     21 C         141.5008  140.5623  164.1867 C.2     1  UNL1        0.3767
     22 N         140.3037  140.8461  165.0449 N.2     1  UNL1       -0.0308
     23 C         140.7883  141.4367  166.3358 C.2     1  UNL1        0.2320
     24 C         140.0601  141.9110  167.5584 C.2     1  UNL1        0.0537
     25 C         140.8286  142.4665  168.7207 C.2     1  UNL1        0.0714
     26 C         142.3251  142.5478  168.6603 C.2     1  UNL1       -0.0133
     27 C         143.0533  142.0735  167.4377 C.3     1  UNL1        0.1037
     28 C         142.2849  141.5179  166.2754 C.2     1  UNL1        0.2178
     29 N         142.7252  140.9776  164.9472 N.2     1  UNL1       -0.0347
     30 C         140.1004  142.9408  169.9433 C.3     1  UNL1        0.4184
     31 F         139.3723  143.4151  171.1660 F       1  UNL1       -0.1659
     32 F         139.2923  141.6772  169.9522 F       1  UNL1       -0.1659
     33 F         140.9086  144.2045  169.9344 F       1  UNL1       -0.1659
@<TRIPOS>UNITY_ATOM_ATTR
18 1
charge -1
@<TRIPOS>BOND
     1    18    19   ar
     2    19    20   ar
     3    19    17    1
     4     7    17    1
     5     7     8    1
     6     8     9    1
     7     9    10    1
     8    10    11    1
     9    11    12    1
    10    12    13    1
    11    13     1    1
    12     1     2   ar
    13     2     3   ar
    14     3     4   ar
    15     4    21    1
    16    21    22    2
    17    22    23    1
    18    23    24    2
    19    24    25    1
    20    25    30    1
    21    30    31    1
    22    30    32    1
    23    30    33    1
    24    25    26    2
    25    26    27    1
    26    27    28    1
    27    28    29    2
    28     4     5   ar
    29     5     6   ar
    30    13    14    1
    31    14    15    1
    32    10    16    1
    33    16     7    1
    34    15    10    1
    35     6     1   ar
    36    29    21    1
    37    28    23    1
@<TRIPOS>MOLECULE
*****
 33 37 0 0 0
SMALL
GASTEIGER

@<TRIPOS>ATOM
      1 C         139.9123  140.9144  162.6641 C.ar    1  UNL1        0.1317
      2 C         139.7316  139.8175  161.6571 C.ar    1  UNL1        0.0346
      3 C         139.1576  140.1266  160.3061 C.ar    1  UNL1        0.0121
      4 C         138.7643  141.5327  159.9623 C.ar    1  UNL1        0.1076
      5 C         138.9451  142.6297  160.9694 C.ar    1  UNL1        0.1080
      6 N         139.5190  142.3205  162.3202 N.ar    1  UNL1       -0.2289
      7 C         142.0903  140.0473  169.1000 C.3     1  UNL1        0.0375
      8 C         142.9447  138.9749  168.4916 C.3     1  UNL1        0.1423
      9 O         142.6628  138.9376  167.0187 O.3     1  UNL1       -0.3584
     10 C         141.6342  139.9869  166.7168 C.3     1  UNL1        0.0961
     11 C         142.0871  139.2128  165.5145 C.3     1  UNL1        0.0487
     12 C         141.5131  139.5220  164.1636 C.3     1  UNL1        0.0946
     13 N         140.4862  140.6052  164.0151 N.pl3   1  UNL1       -0.2931
     14 C         140.0333  141.3793  165.2174 C.3     1  UNL1        0.0946
     15 C         140.6073  141.0701  166.5683 C.3     1  UNL1        0.0487
     16 C         141.2804  140.6727  168.0032 C.3     1  UNL1        0.0302
     17 C         142.0525  140.4275  170.5504 C.3     1  UNL1        0.0443
     18 O         140.5968  141.9700  172.0509 O.co2   1  UNL1       -0.5492
     19 C         140.7415  140.7357  171.2110 C.2     1  UNL1        0.0504
     20 O         139.5753  139.8095  171.0318 O.co2   1  UNL1       -0.5492
     21 C         138.1904  141.8419  158.6114 C.2     1  UNL1        0.3767
     22 N         137.1670  141.0246  157.8802 N.2     1  UNL1       -0.0308
     23 C         136.8831  141.7003  156.5714 C.2     1  UNL1        0.2320
     24 C         135.9621  141.3506  155.4403 C.2     1  UNL1        0.0537
     25 C         135.8890  142.2358  154.2315 C.2     1  UNL1        0.0714
     26 C         136.7370  143.4707  154.1539 C.2     1  UNL1       -0.0133
     27 C         137.6580  143.8203  155.2850 C.3     1  UNL1        0.1037
     28 C         137.7311  142.9352  156.4937 C.2     1  UNL1        0.2178
     29 N         138.5390  143.0227  157.7545 N.2     1  UNL1       -0.0347
     30 C         134.9679  141.8862  153.1004 C.3     1  UNL1        0.4184
     31 F         134.0468  141.5365  151.9694 F       1  UNL1       -0.1659
     32 F         135.5392  143.0101  152.2878 F       1  UNL1       -0.1659
     33 F         134.3966  140.7622  153.9131 F       1  UNL1       -0.1659
@<TRIPOS>UNITY_ATOM_ATTR
18 1
charge -1
@<TRIPOS>BOND
     1    18    19   ar
     2    19    20   ar
     3    19    17    1
     4     7    17    1
     5     7     8    1
     6     8     9    1
     7     9    10    1
     8    10    11    1
     9    11    12    1
    10    12    13    1
    11    13     1    1
    12     1     2   ar
    13     2     3   ar
    14     3     4   ar
    15     4    21    1
    16    21    22    2
    17    22    23    1
    18    23    24    2
    19    24    25    1
    20    25    30    1
    21    30    31    1
    22    30    32    1
    23    30    33    1
    24    25    26    2
    25    26    27    1
    26    27    28    1
    27    28    29    2
    28     4     5   ar
    29     5     6   ar
    30    13    14    1
    31    14    15    1
    32    10    16    1
    33    16     7    1
    34    15    10    1
    35     6     1   ar
    36    29    21    1
    37    28    23    1
@<TRIPOS>MOLECULE
*****
 33 37 0 0 0
SMALL
GASTEIGER

@<TRIPOS>ATOM
      1 C         141.4883  137.1502  157.1402 C.ar    1  UNL1        0.1317
      2 C         142.5838  137.8229  157.9129 C.ar    1  UNL1        0.0346
      3 C         142.2741  139.0131  158.7718 C.ar    1  UNL1        0.0121
      4 C         140.8688  139.5306  158.8578 C.ar    1  UNL1        0.1076
      5 C         139.7732  138.8578  158.0850 C.ar    1  UNL1        0.1080
      6 N         140.0830  137.6677  157.2262 N.ar    1  UNL1       -0.2289
      7 C         143.3590  131.4884  153.7698 C.3     1  UNL1        0.0375
      8 C         142.4287  132.0081  152.7140 C.3     1  UNL1        0.1423
      9 O         141.8467  133.3007  153.2047 O.3     1  UNL1       -0.3584
     10 C         142.4173  133.5798  154.5636 C.3     1  UNL1        0.0961
     11 C         141.4569  134.6250  154.0788 C.3     1  UNL1        0.0487
     12 C         141.1472  135.8151  154.9376 C.3     1  UNL1        0.0946
     13 N         141.7980  135.9600  156.2813 N.pl3   1  UNL1       -0.2931
     14 C         142.7584  134.9148  156.7661 C.3     1  UNL1        0.0946
     15 C         143.0680  133.7247  155.9073 C.3     1  UNL1        0.0487
     16 C         143.3519  132.4596  154.9128 C.3     1  UNL1        0.0302
     17 C         144.1563  130.2201  153.6955 C.3     1  UNL1        0.0443
     18 O         142.9013  128.9963  155.6131 O.co2   1  UNL1       -0.5492
     19 C         144.1676  129.2721  154.8579 C.2     1  UNL1        0.0504
     20 O         145.4452  128.6000  155.2652 O.co2   1  UNL1       -0.5492
     21 C         140.5591  140.7207  159.7166 C.2     1  UNL1        0.3767
     22 N         140.1346  140.6836  161.1548 N.2     1  UNL1       -0.0308
     23 C         139.9326  142.0969  161.6151 C.2     1  UNL1        0.2320
     24 C         139.5145  142.6723  162.9358 C.2     1  UNL1        0.0537
     25 C         139.3961  144.1583  163.1027 C.2     1  UNL1        0.0714
     26 C         139.6957  145.0688  161.9489 C.2     1  UNL1       -0.0133
     27 C         140.1138  144.4934  160.6283 C.3     1  UNL1        0.1037
     28 C         140.2322  143.0075  160.4614 C.2     1  UNL1        0.2178
     29 N         140.6194  142.1569  159.2881 N.2     1  UNL1       -0.0347
     30 C         138.9780  144.7337  164.4233 C.3     1  UNL1        0.4184
     31 F         138.5600  145.3092  165.7440 F       1  UNL1       -0.1659
     32 F         137.5559  144.3495  164.1406 F       1  UNL1       -0.1659
     33 F         140.4002  145.1180  164.7060 F       1  UNL1       -0.1659
@<TRIPOS>UNITY_ATOM_ATTR
18 1
charge -1
@<TRIPOS>BOND
     1    18    19   ar
     2    19    20   ar
     3    19    17    1
     4     7    17    1
     5     7     8    1
     6     8     9    1
     7     9    10    1
     8    10    11    1
     9    11    12    1
    10    12    13    1
    11    13     1    1
    12     1     2   ar
    13     2     3   ar
    14     3     4   ar
    15     4    21    1
    16    21    22    2
    17    22    23    1
    18    23    24    2
    19    24    25    1
    20    25    30    1
    21    30    31    1
    22    30    32    1
    23    30    33    1
    24    25    26    2
    25    26    27    1
    26    27    28    1
    27    28    29    2
    28     4     5   ar
    29     5     6   ar
    30    13    14    1
    31    14    15    1
    32    10    16    1
    33    16     7    1
    34    15    10    1
    35     6     1   ar
    36    29    21    1
    37    28    23    1
