@<TRIPOS>MOLECULE
*****
 38 42 0 0 0
SMALL
GASTEIGER

@<TRIPOS>ATOM
      1 C         140.8358  141.8219  170.3174 C.ar    1  UNL1        0.2306
      2 C         140.6286  142.5150  169.0034 C.ar    1  UNL1        0.0945
      3 C         141.2233  141.9420  167.7512 C.ar    1  UNL1        0.1463
      4 C         142.0251  140.6758  167.8130 C.ar    1  UNL1        0.0949
      5 C         142.2323  139.9827  169.1270 C.ar    1  UNL1        0.2286
      6 N         141.6376  140.5558  170.3792 N.ar    1  UNL1       -0.1767
      7 C         142.4857  140.3505  166.4230 C.3     1  UNL1        0.1757
      8 O         143.0029  139.2854  167.3439 O.3     1  UNL1       -0.3764
      9 C         143.2659  139.3669  165.6022 C.3     1  UNL1        0.1444
     10 O         143.9594  138.1412  166.1189 O.3     1  UNL1       -0.3815
     11 C         143.2308  139.8241  164.1740 C.3     1  UNL1        0.0535
     12 C         142.4290  141.0902  164.1122 C.3     1  UNL1        0.0694
     13 C         141.9684  141.4156  165.5021 C.3     1  UNL1        0.1835
     14 O         141.1882  142.3992  166.3230 O.3     1  UNL1       -0.4754
     15 H         142.2860  138.6687  167.5600 H       1  UNL1        0.2109
     16 H         144.3896  137.6787  165.3828 H       1  UNL1        0.2105
     17 C         142.1387  141.8906  162.8772 C.ar    1  UNL1       -0.0186
     18 C         140.9181  141.5904  162.0586 C.ar    1  UNL1       -0.0041
     19 C         140.6278  142.3907  160.8236 C.ar    1  UNL1       -0.0003
     20 C         141.5581  143.4913  160.4072 C.ar    1  UNL1       -0.0000
     21 C         142.7786  143.7914  161.2258 C.ar    1  UNL1       -0.0003
     22 C         143.0689  142.9911  162.4608 C.ar    1  UNL1       -0.0041
     23 C         141.4513  142.4807  164.5813 C.ar    1  UNL1        0.0165
     24 C         142.2701  143.7104  164.3220 C.ar    1  UNL1       -0.0002
     25 C         141.7529  144.7755  163.4011 C.ar    1  UNL1        0.0101
     26 C         140.4168  144.6109  162.7395 C.ar    1  UNL1        0.0684
     27 C         139.5980  143.3812  162.9988 C.ar    1  UNL1        0.0101
     28 C         140.1152  142.3161  163.9197 C.ar    1  UNL1       -0.0002
     29 C         139.8996  145.6760  161.8186 C.1     1  UNL1        0.1004
     30 N         139.3824  146.7412  160.8977 N.1     1  UNL1       -0.1908
     31 C         139.1007  143.3654  171.4823 C.3     1  UNL1        0.2542
     32 O         140.2411  142.3950  171.5696 O.3     1  UNL1       -0.4560
     33 O         143.0342  138.7165  169.1889 O.3     1  UNL1       -0.4562
     34 C         143.0376  137.8914  170.4415 C.3     1  UNL1        0.2542
     35 C         143.8832  139.1359  163.0117 C.3     1  UNL1        0.0751
     36 N         143.0829  138.2131  162.1411 N.3     1  UNL1       -0.2702
     37 C         141.7427  137.7216  162.6017 C.3     1  UNL1        0.0897
     38 C         143.6230  137.7818  160.8097 C.3     1  UNL1        0.0897
@<TRIPOS>BOND
     1    31    32    1
     2    32     1    1
     3     1     2   ar
     4     2     3   ar
     5     3     4   ar
     6     4     5   ar
     7     5    33    1
     8    33    34    1
     9     5     6   ar
    10     4     7    1
    11     7     8    1
    12     7     9    1
    13     9    10    1
    14     9    11    1
    15    11    35    1
    16    35    36    1
    17    36    37    1
    18    36    38    1
    19    11    12    1
    20    12    17    1
    21    17    18   ar
    22    18    19   ar
    23    19    20   ar
    24    20    21   ar
    25    21    22   ar
    26    12    13    1
    27    13    23    1
    28    23    24   ar
    29    24    25   ar
    30    25    26   ar
    31    26    29    1
    32    29    30    3
    33    26    27   ar
    34    27    28   ar
    35    13    14    1
    36     6     1   ar
    37    13     7    1
    38    28    23   ar
    39    14     3    1
    40    22    17   ar
    41     8    15    1
    42    10    16    1
@<TRIPOS>MOLECULE
*****
 38 42 0 0 0
SMALL
GASTEIGER

@<TRIPOS>ATOM
      1 C         144.4364  141.8381  157.2448 C.ar    1  UNL1        0.2306
      2 C         144.4065  141.2086  158.6059 C.ar    1  UNL1        0.0945
      3 C         143.6785  141.8854  159.7293 C.ar    1  UNL1        0.1463
      4 C         142.9805  143.1916  159.4916 C.ar    1  UNL1        0.0949
      5 C         143.0105  143.8211  158.1304 C.ar    1  UNL1        0.2286
      6 N         143.7384  143.1443  157.0070 N.ar    1  UNL1       -0.1767
      7 C         142.3486  143.6212  160.7824 C.3     1  UNL1        0.1757
      8 O         142.0412  144.6619  159.7468 O.3     1  UNL1       -0.3764
      9 C         141.5267  144.6940  161.4332 C.3     1  UNL1        0.1444
     10 O         140.9981  145.9279  160.7637 O.3     1  UNL1       -0.3815
     11 C         141.3263  144.3163  162.8709 C.3     1  UNL1        0.0535
     12 C         142.0242  143.0101  163.1087 C.3     1  UNL1        0.0694
     13 C         142.6561  142.5805  161.8179 C.3     1  UNL1        0.1835
     14 O         143.4780  141.5077  161.1672 O.3     1  UNL1       -0.4754
     15 H         141.3285  144.3441  159.1707 H       1  UNL1        0.2109
     16 H         140.4989  146.4558  161.4064 H       1  UNL1        0.2105
     17 C         142.0805  142.2645  164.4090 C.ar    1  UNL1       -0.0186
     18 C         141.0309  141.2433  164.7340 C.ar    1  UNL1       -0.0041
     19 C         141.0872  140.4976  166.0343 C.ar    1  UNL1       -0.0003
     20 C         142.1930  140.7730  167.0097 C.ar    1  UNL1       -0.0000
     21 C         143.2426  141.7942  166.6846 C.ar    1  UNL1       -0.0003
     22 C         143.1863  142.5399  165.3843 C.ar    1  UNL1       -0.0041
     23 C         142.9636  141.5398  162.8534 C.ar    1  UNL1        0.0165
     24 C         142.0290  140.3842  163.0560 C.ar    1  UNL1       -0.0002
     25 C         142.3364  139.3435  164.0916 C.ar    1  UNL1        0.0101
     26 C         143.5785  139.4584  164.9246 C.ar    1  UNL1        0.0684
     27 C         144.5131  140.6140  164.7221 C.ar    1  UNL1        0.0101
     28 C         144.2057  141.6547  163.6865 C.ar    1  UNL1       -0.0002
     29 C         143.8860  138.4177  165.9602 C.1     1  UNL1        0.1004
     30 N         144.1935  137.3769  166.9957 N.1     1  UNL1       -0.1908
     31 C         146.5376  141.6225  155.7319 C.3     1  UNL1        0.2542
     32 O         145.1644  141.1613  156.1213 O.3     1  UNL1       -0.4560
     33 O         142.3125  145.1273  157.8926 O.3     1  UNL1       -0.4562
     34 C         141.9411  145.5362  156.4980 C.3     1  UNL1        0.2542
     35 C         140.5619  145.1062  163.8917 C.3     1  UNL1        0.0751
     36 N         139.1147  144.8036  164.1443 N.3     1  UNL1       -0.2702
     37 C         138.5727  144.8452  165.5424 C.3     1  UNL1        0.0897
     38 C         138.2093  144.4594  162.9989 C.3     1  UNL1        0.0897
@<TRIPOS>BOND
     1    31    32    1
     2    32     1    1
     3     1     2   ar
     4     2     3   ar
     5     3     4   ar
     6     4     5   ar
     7     5    33    1
     8    33    34    1
     9     5     6   ar
    10     4     7    1
    11     7     8    1
    12     7     9    1
    13     9    10    1
    14     9    11    1
    15    11    35    1
    16    35    36    1
    17    36    37    1
    18    36    38    1
    19    11    12    1
    20    12    17    1
    21    17    18   ar
    22    18    19   ar
    23    19    20   ar
    24    20    21   ar
    25    21    22   ar
    26    12    13    1
    27    13    23    1
    28    23    24   ar
    29    24    25   ar
    30    25    26   ar
    31    26    29    1
    32    29    30    3
    33    26    27   ar
    34    27    28   ar
    35    13    14    1
    36     6     1   ar
    37    13     7    1
    38    28    23   ar
    39    14     3    1
    40    22    17   ar
    41     8    15    1
    42    10    16    1
@<TRIPOS>MOLECULE
*****
 38 42 0 0 0
SMALL
GASTEIGER

@<TRIPOS>ATOM
      1 C         138.1385  142.3744  157.6846 C.ar    1  UNL1        0.2306
      2 C         138.0640  141.6139  158.9754 C.ar    1  UNL1        0.0945
      3 C         138.9661  141.9819  160.1159 C.ar    1  UNL1        0.1463
      4 C         139.9428  143.1104  159.9656 C.ar    1  UNL1        0.0949
      5 C         140.0173  143.8708  158.6748 C.ar    1  UNL1        0.2286
      6 N         139.1152  143.5028  157.5343 N.ar    1  UNL1       -0.1767
      7 C         140.6990  143.2436  161.2541 C.3     1  UNL1        0.1757
      8 O         141.2083  144.2897  160.3074 O.3     1  UNL1       -0.3764
      9 C         141.7700  144.0233  161.9576 C.3     1  UNL1        0.1444
     10 O         142.5513  145.1667  161.3808 O.3     1  UNL1       -0.3815
     11 C         141.9227  143.4591  163.3390 C.3     1  UNL1        0.0535
     12 C         140.9460  142.3307  163.4893 C.3     1  UNL1        0.0694
     13 C         140.1897  142.1974  162.2008 C.3     1  UNL1        0.1835
     14 O         139.1187  141.4176  161.4974 O.3     1  UNL1       -0.4754
     15 H         140.5771  145.0252  160.2682 H       1  UNL1        0.2109
     16 H         143.1808  145.4943  162.0421 H       1  UNL1        0.2105
     17 C         140.7585  141.4841  164.7132 C.ar    1  UNL1       -0.0186
     18 C         141.5334  140.2092  164.8694 C.ar    1  UNL1       -0.0041
     19 C         141.3459  139.3626  166.0934 C.ar    1  UNL1       -0.0003
     20 C         140.3834  139.7908  167.1613 C.ar    1  UNL1       -0.0000
     21 C         139.6085  141.0657  167.0051 C.ar    1  UNL1       -0.0003
     22 C         139.7961  141.9123  165.7811 C.ar    1  UNL1       -0.0041
     23 C         139.6805  141.1513  163.1474 C.ar    1  UNL1        0.0165
     24 C         140.3095  139.7898  163.1696 C.ar    1  UNL1       -0.0002
     25 C         139.8002  138.7436  164.1163 C.ar    1  UNL1        0.0101
     26 C         138.6619  139.0590  165.0408 C.ar    1  UNL1        0.0684
     27 C         138.0329  140.4206  165.0186 C.ar    1  UNL1        0.0101
     28 C         138.5421  141.4667  164.0719 C.ar    1  UNL1       -0.0002
     29 C         138.1526  138.0129  165.9875 C.1     1  UNL1        0.1004
     30 N         137.6433  136.9667  166.9342 N.1     1  UNL1       -0.1908
     31 C         136.6256  143.0808  155.6941 C.3     1  UNL1        0.2542
     32 O         137.2363  142.0063  156.5442 O.3     1  UNL1       -0.4560
     33 O         140.9940  144.9994  158.5245 O.3     1  UNL1       -0.4562
     34 C         140.8939  145.9264  157.3496 C.3     1  UNL1        0.2542
     35 C         142.8833  143.9392  164.3863 C.3     1  UNL1        0.0751
     36 N         143.8202  142.9705  165.0451 N.3     1  UNL1       -0.2702
     37 C         143.6906  142.6808  166.5111 C.3     1  UNL1        0.0897
     38 C         144.8868  142.2916  164.2378 C.3     1  UNL1        0.0897
@<TRIPOS>BOND
     1    31    32    1
     2    32     1    1
     3     1     2   ar
     4     2     3   ar
     5     3     4   ar
     6     4     5   ar
     7     5    33    1
     8    33    34    1
     9     5     6   ar
    10     4     7    1
    11     7     8    1
    12     7     9    1
    13     9    10    1
    14     9    11    1
    15    11    35    1
    16    35    36    1
    17    36    37    1
    18    36    38    1
    19    11    12    1
    20    12    17    1
    21    17    18   ar
    22    18    19   ar
    23    19    20   ar
    24    20    21   ar
    25    21    22   ar
    26    12    13    1
    27    13    23    1
    28    23    24   ar
    29    24    25   ar
    30    25    26   ar
    31    26    29    1
    32    29    30    3
    33    26    27   ar
    34    27    28   ar
    35    13    14    1
    36     6     1   ar
    37    13     7    1
    38    28    23   ar
    39    14     3    1
    40    22    17   ar
    41     8    15    1
    42    10    16    1
@<TRIPOS>MOLECULE
*****
 38 42 0 0 0
SMALL
GASTEIGER

@<TRIPOS>ATOM
      1 C         140.3581  138.6225  157.5289 C.ar    1  UNL1        0.2306
      2 C         140.9541  138.4296  158.8918 C.ar    1  UNL1        0.0945
      3 C         140.5149  139.2991  160.0324 C.ar    1  UNL1        0.1463
      4 C         139.4797  140.3616  159.8101 C.ar    1  UNL1        0.0949
      5 C         138.8837  140.5545  158.4473 C.ar    1  UNL1        0.2286
      6 N         139.3229  139.6850  157.3066 N.ar    1  UNL1       -0.1767
      7 C         139.2460  141.0614  161.1161 C.3     1  UNL1        0.1757
      8 O         138.3553  141.6914  160.0867 O.3     1  UNL1       -0.3764
      9 C         138.4617  142.1506  161.7859 C.3     1  UNL1        0.1444
     10 O         137.4491  143.0404  161.1278 O.3     1  UNL1       -0.3815
     11 C         138.8677  142.1937  163.2292 C.3     1  UNL1        0.0535
     12 C         139.9029  141.1312  163.4515 C.3     1  UNL1        0.0694
     13 C         140.1367  140.4314  162.1456 C.3     1  UNL1        0.1835
     14 O         140.9210  139.3422  161.4758 O.3     1  UNL1       -0.4754
     15 H         137.5892  141.1181  159.9276 H       1  UNL1        0.2109
     16 H         137.0884  143.6589  161.7822 H       1  UNL1        0.2105
     17 C         140.5846  140.8227  164.7515 C.ar    1  UNL1       -0.0186
     18 C         141.8697  141.5104  165.1063 C.ar    1  UNL1       -0.0041
     19 C         142.5514  141.2019  166.4063 C.ar    1  UNL1       -0.0003
     20 C         141.9481  140.2056  167.3516 C.ar    1  UNL1       -0.0000
     21 C         140.6631  139.5180  166.9968 C.ar    1  UNL1       -0.0003
     22 C         139.9814  139.8265  165.6968 C.ar    1  UNL1       -0.0041
     23 C         141.0274  139.8014  163.1749 C.ar    1  UNL1        0.0165
     24 C         142.4070  140.3432  163.4057 C.ar    1  UNL1       -0.0002
     25 C         143.2977  139.7132  164.4351 C.ar    1  UNL1        0.0101
     26 C         142.8089  138.5415  165.2338 C.ar    1  UNL1        0.0684
     27 C         141.4293  137.9997  165.0031 C.ar    1  UNL1        0.0101
     28 C         140.5386  138.6297  163.9737 C.ar    1  UNL1       -0.0002
     29 C         143.6996  137.9115  166.2633 C.1     1  UNL1        0.1004
     30 N         144.5904  137.2815  167.2927 N.1     1  UNL1       -0.1908
     31 C         139.7842  136.9625  155.6145 C.3     1  UNL1        0.2542
     32 O         140.7973  137.7530  156.3883 O.3     1  UNL1       -0.4560
     33 O         137.8485  141.6171  158.2249 O.3     1  UNL1       -0.4562
     34 C         137.1821  141.7468  156.8874 C.3     1  UNL1        0.2542
     35 C         138.3325  143.1343  164.2680 C.3     1  UNL1        0.0751
     36 N         139.1197  144.3510  164.6549 N.3     1  UNL1       -0.2702
     37 C         140.3114  144.7630  163.8424 C.3     1  UNL1        0.0897
     38 C         138.7153  145.1558  165.8545 C.3     1  UNL1        0.0897
@<TRIPOS>BOND
     1    31    32    1
     2    32     1    1
     3     1     2   ar
     4     2     3   ar
     5     3     4   ar
     6     4     5   ar
     7     5    33    1
     8    33    34    1
     9     5     6   ar
    10     4     7    1
    11     7     8    1
    12     7     9    1
    13     9    10    1
    14     9    11    1
    15    11    35    1
    16    35    36    1
    17    36    37    1
    18    36    38    1
    19    11    12    1
    20    12    17    1
    21    17    18   ar
    22    18    19   ar
    23    19    20   ar
    24    20    21   ar
    25    21    22   ar
    26    12    13    1
    27    13    23    1
    28    23    24   ar
    29    24    25   ar
    30    25    26   ar
    31    26    29    1
    32    29    30    3
    33    26    27   ar
    34    27    28   ar
    35    13    14    1
    36     6     1   ar
    37    13     7    1
    38    28    23   ar
    39    14     3    1
    40    22    17   ar
    41     8    15    1
    42    10    16    1
@<TRIPOS>MOLECULE
*****
 38 42 0 0 0
SMALL
GASTEIGER

@<TRIPOS>ATOM
      1 C         139.5873  140.1378  169.8929 C.ar    1  UNL1        0.2306
      2 C         139.1797  140.0778  168.4506 C.ar    1  UNL1        0.0945
      3 C         140.0453  140.7076  167.3998 C.ar    1  UNL1        0.1463
      4 C         141.3184  141.3974  167.7913 C.ar    1  UNL1        0.0949
      5 C         141.7260  141.4574  169.2336 C.ar    1  UNL1        0.2286
      6 N         140.8604  140.8276  170.2844 N.ar    1  UNL1       -0.1767
      7 C         141.9632  141.9235  166.5434 C.3     1  UNL1        0.1757
      8 O         142.8378  142.2882  167.7062 O.3     1  UNL1       -0.3764
      9 C         143.1486  142.6749  166.0141 C.3     1  UNL1        0.1444
     10 O         144.2778  143.2294  166.8313 O.3     1  UNL1       -0.3815
     11 C         143.0066  142.7747  164.5242 C.3     1  UNL1        0.0535
     12 C         141.7335  142.0849  164.1327 C.3     1  UNL1        0.0694
     13 C         141.0886  141.5588  165.3806 C.3     1  UNL1        0.1835
     14 O         139.9033  140.8074  165.9098 O.3     1  UNL1       -0.4754
     15 H         143.3457  141.5103  167.9852 H       1  UNL1        0.2109
     16 H         144.9143  143.6696  166.2465 H       1  UNL1        0.2105
     17 C         141.1991  141.9456  162.7380 C.ar    1  UNL1       -0.0186
     18 C         140.2805  142.9913  162.1789 C.ar    1  UNL1       -0.0041
     19 C         139.7461  142.8520  160.7842 C.ar    1  UNL1       -0.0003
     20 C         140.1302  141.6670  159.9487 C.ar    1  UNL1       -0.0000
     21 C         141.0488  140.6213  160.5079 C.ar    1  UNL1       -0.0003
     22 C         141.5833  140.7606  161.9025 C.ar    1  UNL1       -0.0041
     23 C         140.2141  141.1942  164.2178 C.ar    1  UNL1        0.0165
     24 C         140.4267  139.8956  163.4977 C.ar    1  UNL1       -0.0002
     25 C         139.5521  139.5309  162.3349 C.ar    1  UNL1        0.0101
     26 C         138.4650  140.4648  161.8921 C.ar    1  UNL1        0.0684
     27 C         138.2524  141.7633  162.6123 C.ar    1  UNL1        0.0101
     28 C         139.1270  142.1280  163.7751 C.ar    1  UNL1       -0.0002
     29 C         137.5904  140.1001  160.7293 C.1     1  UNL1        0.1004
     30 N         136.7158  139.7354  159.5665 N.1     1  UNL1       -0.1908
     31 C         137.2531  139.3288  170.6972 C.3     1  UNL1        0.2542
     32 O         138.7218  139.5079  170.9437 O.3     1  UNL1       -0.4560
     33 O         142.9991  142.1472  169.6252 O.3     1  UNL1       -0.4562
     34 C         142.9882  143.1820  170.7111 C.3     1  UNL1        0.2542
     35 C         143.9689  143.4463  163.5898 C.3     1  UNL1        0.0751
     36 N         144.8466  142.6209  162.6963 N.3     1  UNL1       -0.2702
     37 C         145.8439  141.6726  163.2930 C.3     1  UNL1        0.0897
     38 C         144.7270  142.7438  161.2061 C.3     1  UNL1        0.0897
@<TRIPOS>BOND
     1    31    32    1
     2    32     1    1
     3     1     2   ar
     4     2     3   ar
     5     3     4   ar
     6     4     5   ar
     7     5    33    1
     8    33    34    1
     9     5     6   ar
    10     4     7    1
    11     7     8    1
    12     7     9    1
    13     9    10    1
    14     9    11    1
    15    11    35    1
    16    35    36    1
    17    36    37    1
    18    36    38    1
    19    11    12    1
    20    12    17    1
    21    17    18   ar
    22    18    19   ar
    23    19    20   ar
    24    20    21   ar
    25    21    22   ar
    26    12    13    1
    27    13    23    1
    28    23    24   ar
    29    24    25   ar
    30    25    26   ar
    31    26    29    1
    32    29    30    3
    33    26    27   ar
    34    27    28   ar
    35    13    14    1
    36     6     1   ar
    37    13     7    1
    38    28    23   ar
    39    14     3    1
    40    22    17   ar
    41     8    15    1
    42    10    16    1
@<TRIPOS>MOLECULE
*****
 38 42 0 0 0
SMALL
GASTEIGER

@<TRIPOS>ATOM
      1 C         142.4916  138.0072  158.1065 C.ar    1  UNL1        0.2306
      2 C         142.5833  138.1153  159.5997 C.ar    1  UNL1        0.0945
      3 C         141.7408  139.1171  160.3323 C.ar    1  UNL1        0.1463
      4 C         140.8066  140.0107  159.5717 C.ar    1  UNL1        0.0949
      5 C         140.7149  139.9026  158.0785 C.ar    1  UNL1        0.2286
      6 N         141.5574  138.9009  157.3458 N.ar    1  UNL1       -0.1767
      7 C         140.1058  140.8963  160.5589 C.3     1  UNL1        0.1757
      8 O         139.6047  141.2426  159.1881 O.3     1  UNL1       -0.3764
      9 C         139.0952  141.9959  160.6989 C.3     1  UNL1        0.1444
     10 O         138.3406  142.6479  159.5782 O.3     1  UNL1       -0.3815
     11 C         138.9717  142.3292  162.1561 C.3     1  UNL1        0.0535
     12 C         139.9059  141.4355  162.9168 C.3     1  UNL1        0.0694
     13 C         140.6068  140.5499  161.9297 C.3     1  UNL1        0.1835
     14 O         141.6173  139.4503  161.7897 O.3     1  UNL1       -0.4754
     15 H         138.9651  140.5732  158.8989 H       1  UNL1        0.2109
     16 H         137.7507  143.3283  159.9386 H       1  UNL1        0.2105
     17 C         140.1043  141.4286  164.4036 C.ar    1  UNL1       -0.0186
     18 C         141.1431  142.3139  165.0258 C.ar    1  UNL1       -0.0041
     19 C         141.3415  142.3070  166.5125 C.ar    1  UNL1       -0.0003
     20 C         140.5012  141.4148  167.3773 C.ar    1  UNL1       -0.0000
     21 C         139.4624  140.5294  166.7550 C.ar    1  UNL1       -0.0003
     22 C         139.2639  140.5363  165.2683 C.ar    1  UNL1       -0.0041
     23 C         141.1078  140.2036  163.3004 C.ar    1  UNL1        0.0165
     24 C         142.3013  140.9156  163.8648 C.ar    1  UNL1       -0.0002
     25 C         142.8023  140.5692  165.2356 C.ar    1  UNL1        0.0101
     26 C         142.1098  139.5109  166.0420 C.ar    1  UNL1        0.0684
     27 C         140.9163  138.7989  165.4776 C.ar    1  UNL1        0.0101
     28 C         140.4153  139.1452  164.1068 C.ar    1  UNL1       -0.0002
     29 C         142.6108  139.1645  167.4128 C.1     1  UNL1        0.1004
     30 N         143.1118  138.8182  168.7836 N.1     1  UNL1       -0.1908
     31 C         142.7059  135.7639  156.8136 C.3     1  UNL1        0.2542
     32 O         143.3340  137.0054  157.3739 O.3     1  UNL1       -0.4560
     33 O         139.7807  140.7963  157.3177 O.3     1  UNL1       -0.4562
     34 C         139.8986  140.9092  155.8267 C.3     1  UNL1        0.2542
     35 C         138.0719  143.3729  162.7487 C.3     1  UNL1        0.0751
     36 N         138.6611  144.5865  163.4044 N.3     1  UNL1       -0.2702
     37 C         138.4868  144.8016  164.8787 C.3     1  UNL1        0.0897
     38 C         139.4247  145.5850  162.5859 C.3     1  UNL1        0.0897
@<TRIPOS>BOND
     1    31    32    1
     2    32     1    1
     3     1     2   ar
     4     2     3   ar
     5     3     4   ar
     6     4     5   ar
     7     5    33    1
     8    33    34    1
     9     5     6   ar
    10     4     7    1
    11     7     8    1
    12     7     9    1
    13     9    10    1
    14     9    11    1
    15    11    35    1
    16    35    36    1
    17    36    37    1
    18    36    38    1
    19    11    12    1
    20    12    17    1
    21    17    18   ar
    22    18    19   ar
    23    19    20   ar
    24    20    21   ar
    25    21    22   ar
    26    12    13    1
    27    13    23    1
    28    23    24   ar
    29    24    25   ar
    30    25    26   ar
    31    26    29    1
    32    29    30    3
    33    26    27   ar
    34    27    28   ar
    35    13    14    1
    36     6     1   ar
    37    13     7    1
    38    28    23   ar
    39    14     3    1
    40    22    17   ar
    41     8    15    1
    42    10    16    1
@<TRIPOS>MOLECULE
*****
 38 42 0 0 0
SMALL
GASTEIGER

@<TRIPOS>ATOM
      1 C         137.4624  141.9605  156.7631 C.ar    1  UNL1        0.2306
      2 C         137.4988  141.4392  158.1691 C.ar    1  UNL1        0.0945
      3 C         138.4456  142.0379  159.1667 C.ar    1  UNL1        0.1463
      4 C         139.3559  143.1580  158.7583 C.ar    1  UNL1        0.0949
      5 C         139.3194  143.6793  157.3523 C.ar    1  UNL1        0.2286
      6 N         138.3727  143.0805  156.3547 N.ar    1  UNL1       -0.1767
      7 C         140.1770  143.5466  159.9520 C.3     1  UNL1        0.1757
      8 O         140.5798  144.4264  158.8058 O.3     1  UNL1       -0.3764
      9 C         141.2471  144.4790  160.4372 C.3     1  UNL1        0.1444
     10 O         141.9374  145.5305  159.6199 O.3     1  UNL1       -0.3815
     11 C         141.5056  144.1754  161.8832 C.3     1  UNL1        0.0535
     12 C         140.5953  143.0553  162.2916 C.3     1  UNL1        0.0694
     13 C         139.7742  142.6667  161.0981 C.3     1  UNL1        0.1835
     14 O         138.7041  141.7343  160.6128 O.3     1  UNL1       -0.4754
     15 H         139.9122  145.1187  158.6795 H       1  UNL1        0.2109
     16 H         142.5869  145.9940  160.1715 H       1  UNL1        0.2105
     17 C         140.5195  142.4331  163.6544 C.ar    1  UNL1       -0.0186
     18 C         141.3787  141.2496  163.9874 C.ar    1  UNL1       -0.0041
     19 C         141.3029  140.6274  165.3502 C.ar    1  UNL1       -0.0003
     20 C         140.3678  141.1887  166.3800 C.ar    1  UNL1       -0.0000
     21 C         139.5085  142.3723  166.0469 C.ar    1  UNL1       -0.0003
     22 C         139.5844  142.9945  164.6842 C.ar    1  UNL1       -0.0041
     23 C         139.3714  141.7868  162.2441 C.ar    1  UNL1        0.0165
     24 C         140.0729  140.4803  162.4692 C.ar    1  UNL1       -0.0002
     25 C         139.6701  139.6004  163.6154 C.ar    1  UNL1        0.0101
     26 C         138.5658  140.0271  164.5364 C.ar    1  UNL1        0.0684
     27 C         137.8642  141.3336  164.3113 C.ar    1  UNL1        0.0101
     28 C         138.2670  142.2135  163.1652 C.ar    1  UNL1       -0.0002
     29 C         138.1630  139.1472  165.6825 C.1     1  UNL1        0.1004
     30 N         137.7602  138.2673  166.8286 N.1     1  UNL1       -0.1908
     31 C         135.2668  140.6760  156.2346 C.3     1  UNL1        0.2542
     32 O         136.5157  141.3617  155.7655 O.3     1  UNL1       -0.4560
     33 O         140.2297  144.7994  156.9439 O.3     1  UNL1       -0.4562
     34 C         139.9428  145.5823  155.6971 C.3     1  UNL1        0.2542
     35 C         142.4999  144.8699  162.7659 C.3     1  UNL1        0.0751
     36 N         143.7470  144.1565  163.1969 N.3     1  UNL1       -0.2702
     37 C         144.1925  144.2229  164.6277 C.3     1  UNL1        0.0897
     38 C         144.5487  143.3768  162.1972 C.3     1  UNL1        0.0897
@<TRIPOS>BOND
     1    31    32    1
     2    32     1    1
     3     1     2   ar
     4     2     3   ar
     5     3     4   ar
     6     4     5   ar
     7     5    33    1
     8    33    34    1
     9     5     6   ar
    10     4     7    1
    11     7     8    1
    12     7     9    1
    13     9    10    1
    14     9    11    1
    15    11    35    1
    16    35    36    1
    17    36    37    1
    18    36    38    1
    19    11    12    1
    20    12    17    1
    21    17    18   ar
    22    18    19   ar
    23    19    20   ar
    24    20    21   ar
    25    21    22   ar
    26    12    13    1
    27    13    23    1
    28    23    24   ar
    29    24    25   ar
    30    25    26   ar
    31    26    29    1
    32    29    30    3
    33    26    27   ar
    34    27    28   ar
    35    13    14    1
    36     6     1   ar
    37    13     7    1
    38    28    23   ar
    39    14     3    1
    40    22    17   ar
    41     8    15    1
    42    10    16    1
@<TRIPOS>MOLECULE
*****
 38 42 0 0 0
SMALL
GASTEIGER

@<TRIPOS>ATOM
      1 C         138.0213  140.3210  156.9228 C.ar    1  UNL1        0.2306
      2 C         137.9982  141.0623  158.2266 C.ar    1  UNL1        0.0945
      3 C         138.9473  140.6803  159.3235 C.ar    1  UNL1        0.1463
      4 C         139.9195  139.5569  159.1167 C.ar    1  UNL1        0.0949
      5 C         139.9426  138.8156  157.8129 C.ar    1  UNL1        0.2286
      6 N         138.9935  139.1976  156.7160 N.ar    1  UNL1       -0.1767
      7 C         140.7284  139.4071  160.3709 C.3     1  UNL1        0.1757
      8 O         141.2007  138.3763  159.3889 O.3     1  UNL1       -0.3764
      9 C         141.8292  138.6202  161.0183 C.3     1  UNL1        0.1444
     10 O         142.5886  137.4876  160.3932 O.3     1  UNL1       -0.3815
     11 C         142.0372  139.1646  162.4004 C.3     1  UNL1        0.0535
     12 C         141.0651  140.2880  162.6073 C.3     1  UNL1        0.0694
     13 C         140.2561  140.4379  161.3530 C.3     1  UNL1        0.1835
     14 O         139.1554  141.2248  160.7057 O.3     1  UNL1       -0.4754
     15 H         141.7722  138.7974  158.7278 H       1  UNL1        0.2109
     16 H         143.2455  137.1521  161.0232 H       1  UNL1        0.2105
     17 C         140.9261  141.1161  163.8502 C.ar    1  UNL1       -0.0186
     18 C         139.9663  140.7002  164.9252 C.ar    1  UNL1       -0.0041
     19 C         139.8274  141.5283  166.1681 C.ar    1  UNL1       -0.0003
     20 C         140.6484  142.7724  166.3361 C.ar    1  UNL1       -0.0000
     21 C         141.6082  143.1883  165.2611 C.ar    1  UNL1       -0.0003
     22 C         141.7471  142.3602  164.0181 C.ar    1  UNL1       -0.0041
     23 C         139.7839  141.4686  162.3351 C.ar    1  UNL1        0.0165
     24 C         140.4173  142.8281  162.3583 C.ar    1  UNL1       -0.0002
     25 C         139.9451  143.8588  163.3404 C.ar    1  UNL1        0.0101
     26 C         138.8394  143.5302  164.2992 C.ar    1  UNL1        0.0684
     27 C         138.2059  142.1707  164.2760 C.ar    1  UNL1        0.0101
     28 C         138.6782  141.1399  163.2939 C.ar    1  UNL1       -0.0002
     29 C         138.3671  144.5609  165.2813 C.1     1  UNL1        0.1004
     30 N         137.8948  145.5917  166.2634 N.1     1  UNL1       -0.1908
     31 C         135.6666  141.1082  156.1577 C.3     1  UNL1        0.2542
     32 O         137.0722  140.7030  155.8259 O.3     1  UNL1       -0.4560
     33 O         140.9148  137.6921  157.6060 O.3     1  UNL1       -0.4562
     34 C         140.9156  136.9293  156.3145 C.3     1  UNL1        0.2542
     35 C         143.0412  138.6721  163.4001 C.3     1  UNL1        0.0751
     36 N         142.5784  138.0708  164.6940 N.3     1  UNL1       -0.2702
     37 C         143.3405  138.3348  165.9588 C.3     1  UNL1        0.0897
     38 C         141.3535  137.2054  164.7232 C.3     1  UNL1        0.0897
@<TRIPOS>BOND
     1    31    32    1
     2    32     1    1
     3     1     2   ar
     4     2     3   ar
     5     3     4   ar
     6     4     5   ar
     7     5    33    1
     8    33    34    1
     9     5     6   ar
    10     4     7    1
    11     7     8    1
    12     7     9    1
    13     9    10    1
    14     9    11    1
    15    11    35    1
    16    35    36    1
    17    36    37    1
    18    36    38    1
    19    11    12    1
    20    12    17    1
    21    17    18   ar
    22    18    19   ar
    23    19    20   ar
    24    20    21   ar
    25    21    22   ar
    26    12    13    1
    27    13    23    1
    28    23    24   ar
    29    24    25   ar
    30    25    26   ar
    31    26    29    1
    32    29    30    3
    33    26    27   ar
    34    27    28   ar
    35    13    14    1
    36     6     1   ar
    37    13     7    1
    38    28    23   ar
    39    14     3    1
    40    22    17   ar
    41     8    15    1
    42    10    16    1
@<TRIPOS>MOLECULE
*****
 38 42 0 0 0
SMALL
GASTEIGER

@<TRIPOS>ATOM
      1 C         137.8324  140.9185  157.2367 C.ar    1  UNL1        0.2306
      2 C         137.7923  140.5612  158.6929 C.ar    1  UNL1        0.0945
      3 C         138.8069  141.1383  159.6350 C.ar    1  UNL1        0.1463
      4 C         139.8616  142.0727  159.1208 C.ar    1  UNL1        0.0949
      5 C         139.9017  142.4300  157.6646 C.ar    1  UNL1        0.2286
      6 N         138.8871  141.8529  156.7225 N.ar    1  UNL1       -0.1767
      7 C         140.7227  142.4821  160.2788 C.3     1  UNL1        0.1757
      8 O         141.2452  143.1635  159.0489 O.3     1  UNL1       -0.3764
      9 C         141.9066  143.3126  160.6767 C.3     1  UNL1        0.1444
     10 O         142.7359  144.1622  159.7597 O.3     1  UNL1       -0.3815
     11 C         142.1158  143.1446  162.1525 C.3     1  UNL1        0.0535
     12 C         141.0611  142.2102  162.6667 C.3     1  UNL1        0.0694
     13 C         140.2001  141.8007  161.5087 C.3     1  UNL1        0.1835
     14 O         139.0161  140.9702  161.1108 O.3     1  UNL1       -0.4754
     15 H         140.6776  143.9197  158.8323 H       1  UNL1        0.2109
     16 H         143.4396  144.5949  160.2681 H       1  UNL1        0.2105
     17 C         140.8964  141.7636  164.0891 C.ar    1  UNL1       -0.0186
     18 C         140.0379  142.5564  165.0296 C.ar    1  UNL1       -0.0041
     19 C         139.8731  142.1099  166.4520 C.ar    1  UNL1       -0.0003
     20 C         140.5669  140.8704  166.9341 C.ar    1  UNL1       -0.0000
     21 C         141.4254  140.0775  165.9937 C.ar    1  UNL1       -0.0003
     22 C         141.5901  140.5241  164.5712 C.ar    1  UNL1       -0.0041
     23 C         139.6775  141.1194  162.7386 C.ar    1  UNL1        0.0165
     24 C         138.6392  141.7935  163.5856 C.ar    1  UNL1       -0.0002
     25 C         138.1167  141.1121  164.8155 C.ar    1  UNL1        0.0101
     26 C         138.6324  139.7566  165.1984 C.ar    1  UNL1        0.0684
     27 C         139.6707  139.0825  164.3514 C.ar    1  UNL1        0.0101
     28 C         140.1933  139.7639  163.1215 C.ar    1  UNL1       -0.0002
     29 C         138.1098  139.0752  166.4283 C.1     1  UNL1        0.1004
     30 N         137.5873  138.3939  167.6582 N.1     1  UNL1       -0.1908
     31 C         135.5121  141.0462  156.0748 C.3     1  UNL1        0.2542
     32 O         136.8178  140.3413  156.2946 O.3     1  UNL1       -0.4560
     33 O         140.9565  143.3644  157.1503 O.3     1  UNL1       -0.4562
     34 C         141.1035  143.5904  155.6748 C.3     1  UNL1        0.2542
     35 C         143.1910  143.7965  162.9705 C.3     1  UNL1        0.0751
     36 N         144.2419  142.9566  163.6339 N.3     1  UNL1       -0.2702
     37 C         144.5171  143.1191  165.0995 C.3     1  UNL1        0.0897
     38 C         145.0177  141.9541  162.8317 C.3     1  UNL1        0.0897
@<TRIPOS>BOND
     1    31    32    1
     2    32     1    1
     3     1     2   ar
     4     2     3   ar
     5     3     4   ar
     6     4     5   ar
     7     5    33    1
     8    33    34    1
     9     5     6   ar
    10     4     7    1
    11     7     8    1
    12     7     9    1
    13     9    10    1
    14     9    11    1
    15    11    35    1
    16    35    36    1
    17    36    37    1
    18    36    38    1
    19    11    12    1
    20    12    17    1
    21    17    18   ar
    22    18    19   ar
    23    19    20   ar
    24    20    21   ar
    25    21    22   ar
    26    12    13    1
    27    13    23    1
    28    23    24   ar
    29    24    25   ar
    30    25    26   ar
    31    26    29    1
    32    29    30    3
    33    26    27   ar
    34    27    28   ar
    35    13    14    1
    36     6     1   ar
    37    13     7    1
    38    28    23   ar
    39    14     3    1
    40    22    17   ar
    41     8    15    1
    42    10    16    1
