@<TRIPOS>MOLECULE
*****
 32 35 0 0 0
SMALL
GASTEIGER

@<TRIPOS>ATOM
      1 C         137.3473  138.0592  167.3418 C.3     1  UNL1        0.0420
      2 C         138.2857  139.1325  166.8753 C.3     1  UNL1        0.1912
      3 O         138.3801  139.4637  165.4154 O.3     1  UNL1       -0.3500
      4 C         139.3185  140.5370  164.9490 C.3     1  UNL1        0.1145
      5 C         140.2569  141.6103  164.4827 C.3     1  UNL1        0.0463
      6 C         140.3513  141.9416  163.0228 C.3     1  UNL1        0.0746
      7 N         139.5073  141.1996  162.0292 N.3     1  UNL1       -0.2722
      8 C         138.5689  140.1263  162.4956 C.3     1  UNL1        0.0746
      9 C         138.4745  139.7951  163.9555 C.3     1  UNL1        0.0463
     10 C         140.1625  141.2790  165.9426 C.3     1  UNL1        0.1254
     11 N         140.0681  140.9477  167.4025 N.am    1  UNL1       -0.2529
     12 C         139.1297  139.8745  167.8689 C.2     1  UNL1        0.2566
     13 O         139.0353  139.5432  169.3288 O.2     1  UNL1       -0.2719
     14 C         140.9121  141.6897  168.3960 C.ar    1  UNL1        0.0770
     15 C         140.3808  142.9281  169.0549 C.ar    1  UNL1        0.1136
     16 N         141.2248  143.6700  170.0485 N.ar    1  UNL1       -0.2410
     17 C         142.6001  143.1737  170.3831 C.ar    1  UNL1        0.0989
     18 C         143.1315  141.9353  169.7242 C.ar    1  UNL1        0.0258
     19 C         142.2875  141.1933  168.7307 C.ar    1  UNL1        0.0881
     20 C         142.8189  139.9550  168.0718 C.3     1  UNL1        0.4198
     21 F         143.3502  138.7167  167.4129 F       1  UNL1       -0.1658
     22 F         143.3081  140.7789  166.9178 F       1  UNL1       -0.1658
     23 F         142.3296  139.1311  169.2258 F       1  UNL1       -0.1658
     24 C         139.6017  141.5309  160.5693 C.3     1  UNL1        0.0769
     25 C         140.6351  140.8605  159.7134 C.3     1  UNL1        0.0459
     26 C         141.6593  139.9612  160.3399 C.ar    1  UNL1        0.0067
     27 C         143.0266  140.4893  160.6584 C.ar    1  UNL1       -0.0020
     28 C         144.0507  139.5901  161.2849 C.ar    1  UNL1       -0.0002
     29 C         143.7075  138.1627  161.5929 C.ar    1  UNL1        0.0023
     30 C         142.3402  137.6346  161.2744 C.ar    1  UNL1        0.0293
     31 C         141.3161  138.5338  160.6479 C.ar    1  UNL1        0.1362
     32 F         139.9486  138.0057  160.3294 F       1  UNL1       -0.2045
@<TRIPOS>BOND
     1     2     1    1
     2     2     3    1
     3     3     4    1
     4     4     5    1
     5     5     6    1
     6     6     7    1
     7     7    24    1
     8    24    25    1
     9    25    26    1
    10    26    27   ar
    11    27    28   ar
    12    28    29   ar
    13    29    30   ar
    14    30    31   ar
    15    31    32    1
    16     7     8    1
    17     8     9    1
    18     4    10    1
    19    10    11    1
    20    11    14    1
    21    14    15   ar
    22    15    16   ar
    23    16    17   ar
    24    17    18   ar
    25    18    19   ar
    26    19    20    1
    27    20    21    1
    28    20    22    1
    29    20    23    1
    30    11    12   am
    31    12    13    2
    32    12     2    1
    33     9     4    1
    34    19    14   ar
    35    31    26   ar
@<TRIPOS>MOLECULE
*****
 32 35 0 0 0
SMALL
GASTEIGER

@<TRIPOS>ATOM
      1 C         137.3932  138.2208  167.2998 C.3     1  UNL1        0.0420
      2 C         138.2301  139.3923  166.8786 C.3     1  UNL1        0.1912
      3 O         138.1240  139.9258  165.4807 O.3     1  UNL1       -0.3500
      4 C         138.9609  141.0973  165.0596 C.3     1  UNL1        0.1145
      5 C         139.7977  142.2687  164.6384 C.3     1  UNL1        0.0463
      6 C         139.6917  142.8023  163.2406 C.3     1  UNL1        0.0746
      7 N         138.7487  142.1644  162.2639 N.3     1  UNL1       -0.2722
      8 C         137.9119  140.9930  162.6850 C.3     1  UNL1        0.0746
      9 C         138.0179  140.4594  164.0828 C.3     1  UNL1        0.0463
     10 C         139.9038  141.7352  166.0363 C.3     1  UNL1        0.1254
     11 N         140.0098  141.2016  167.4342 N.am    1  UNL1       -0.2529
     12 C         139.1730  140.0301  167.8553 C.2     1  UNL1        0.2566
     13 O         139.2790  139.4965  169.2532 O.2     1  UNL1       -0.2719
     14 C         140.9528  141.8394  168.4109 C.ar    1  UNL1        0.0770
     15 C         140.5112  143.0274  169.2132 C.ar    1  UNL1        0.1136
     16 N         141.4541  143.6653  170.1899 N.ar    1  UNL1       -0.2410
     17 C         142.8386  143.1152  170.3644 C.ar    1  UNL1        0.0989
     18 C         143.2803  141.9271  169.5621 C.ar    1  UNL1        0.0258
     19 C         142.3373  141.2892  168.5854 C.ar    1  UNL1        0.0881
     20 C         142.7789  140.1012  167.7832 C.3     1  UNL1        0.4198
     21 F         143.2205  138.9132  166.9809 F       1  UNL1       -0.1658
     22 F         143.1812  141.0096  166.6594 F       1  UNL1       -0.1658
     23 F         142.3766  139.1928  168.9070 F       1  UNL1       -0.1658
     24 C         138.6427  142.6980  160.8659 C.3     1  UNL1        0.0769
     25 C         139.8837  142.9348  160.0574 C.3     1  UNL1        0.0459
     26 C         139.8265  143.7956  158.8302 C.ar    1  UNL1        0.0067
     27 C         139.2470  143.2509  157.5584 C.ar    1  UNL1       -0.0020
     28 C         139.1898  144.1117  156.3314 C.ar    1  UNL1       -0.0002
     29 C         139.7121  145.5171  156.3761 C.ar    1  UNL1        0.0023
     30 C         140.2916  146.0618  157.6479 C.ar    1  UNL1        0.0293
     31 C         140.3488  145.2010  158.8749 C.ar    1  UNL1        0.1362
     32 F         140.9283  145.7456  160.1468 F       1  UNL1       -0.2045
@<TRIPOS>BOND
     1     2     1    1
     2     2     3    1
     3     3     4    1
     4     4     5    1
     5     5     6    1
     6     6     7    1
     7     7    24    1
     8    24    25    1
     9    25    26    1
    10    26    27   ar
    11    27    28   ar
    12    28    29   ar
    13    29    30   ar
    14    30    31   ar
    15    31    32    1
    16     7     8    1
    17     8     9    1
    18     4    10    1
    19    10    11    1
    20    11    14    1
    21    14    15   ar
    22    15    16   ar
    23    16    17   ar
    24    17    18   ar
    25    18    19   ar
    26    19    20    1
    27    20    21    1
    28    20    22    1
    29    20    23    1
    30    11    12   am
    31    12    13    2
    32    12     2    1
    33     9     4    1
    34    19    14   ar
    35    31    26   ar
@<TRIPOS>MOLECULE
*****
 32 35 0 0 0
SMALL
GASTEIGER

@<TRIPOS>ATOM
      1 C         137.3924  138.2589  167.2827 C.3     1  UNL1        0.0420
      2 C         138.2445  139.4257  166.8792 C.3     1  UNL1        0.1912
      3 O         138.1609  139.9681  165.4832 O.3     1  UNL1       -0.3500
      4 C         139.0130  141.1349  165.0797 C.3     1  UNL1        0.1145
      5 C         139.8650  142.3016  164.6763 C.3     1  UNL1        0.0463
      6 C         139.7814  142.8440  163.2803 C.3     1  UNL1        0.0746
      7 N         138.8459  142.2198  162.2878 N.3     1  UNL1       -0.2722
      8 C         137.9938  141.0531  162.6913 C.3     1  UNL1        0.0746
      9 C         138.0774  140.5106  164.0872 C.3     1  UNL1        0.0463
     10 C         139.9485  141.7591  166.0722 C.3     1  UNL1        0.1254
     11 N         140.0321  141.2166  167.4682 N.am    1  UNL1       -0.2529
     12 C         139.1800  140.0499  167.8717 C.2     1  UNL1        0.2566
     13 O         139.2636  139.5074  169.2677 O.2     1  UNL1       -0.2719
     14 C         140.9676  141.8408  168.4607 C.ar    1  UNL1        0.0770
     15 C         140.5359  143.0452  169.2437 C.ar    1  UNL1        0.1136
     16 N         141.4715  143.6694  170.2362 N.ar    1  UNL1       -0.2410
     17 C         142.8388  143.0893  170.4457 C.ar    1  UNL1        0.0989
     18 C         143.2706  141.8849  169.6627 C.ar    1  UNL1        0.0258
     19 C         142.3350  141.2607  168.6702 C.ar    1  UNL1        0.0881
     20 C         142.7667  140.0563  167.8872 C.3     1  UNL1        0.4198
     21 F         143.1984  138.8519  167.1042 F       1  UNL1       -0.1658
     22 F         142.3959  139.1730  169.0414 F       1  UNL1       -0.1658
     23 F         143.1375  140.9396  166.7330 F       1  UNL1       -0.1658
     24 C         138.7623  142.7623  160.8918 C.3     1  UNL1        0.0769
     25 C         139.7169  142.2785  159.8408 C.3     1  UNL1        0.0459
     26 C         141.1594  142.0521  160.1847 C.ar    1  UNL1        0.0067
     27 C         142.1549  143.1604  160.0100 C.ar    1  UNL1       -0.0020
     28 C         143.5973  142.9340  160.3538 C.ar    1  UNL1       -0.0002
     29 C         144.0441  141.5993  160.8724 C.ar    1  UNL1        0.0023
     30 C         143.0485  140.4910  161.0471 C.ar    1  UNL1        0.0293
     31 C         141.6062  140.7174  160.7032 C.ar    1  UNL1        0.1362
     32 F         140.6105  139.6091  160.8779 F       1  UNL1       -0.2045
@<TRIPOS>BOND
     1     2     1    1
     2     2     3    1
     3     3     4    1
     4     4     5    1
     5     5     6    1
     6     6     7    1
     7     7    24    1
     8    24    25    1
     9    25    26    1
    10    26    27   ar
    11    27    28   ar
    12    28    29   ar
    13    29    30   ar
    14    30    31   ar
    15    31    32    1
    16     7     8    1
    17     8     9    1
    18     4    10    1
    19    10    11    1
    20    11    14    1
    21    14    15   ar
    22    15    16   ar
    23    16    17   ar
    24    17    18   ar
    25    18    19   ar
    26    19    20    1
    27    20    21    1
    28    20    22    1
    29    20    23    1
    30    11    12   am
    31    12    13    2
    32    12     2    1
    33     9     4    1
    34    19    14   ar
    35    31    26   ar
@<TRIPOS>MOLECULE
*****
 32 35 0 0 0
SMALL
GASTEIGER

@<TRIPOS>ATOM
      1 C         137.7205  138.7305  161.7472 C.3     1  UNL1        0.0420
      2 C         138.6837  139.7200  162.3331 C.3     1  UNL1        0.1912
      3 O         139.5237  139.3389  163.5160 O.3     1  UNL1       -0.3500
      4 C         140.4869  140.3283  164.1019 C.3     1  UNL1        0.1145
      5 C         141.4501  141.3178  164.6877 C.3     1  UNL1        0.0463
      6 C         142.2900  140.9367  165.8706 C.3     1  UNL1        0.0746
      7 N         142.1668  139.5661  166.4676 N.3     1  UNL1       -0.2722
      8 C         141.2037  138.5767  165.8817 C.3     1  UNL1        0.0746
      9 C         140.3637  138.9578  164.6989 C.3     1  UNL1        0.0463
     10 C         140.6101  141.6989  163.5049 C.3     1  UNL1        0.1254
     11 N         139.7701  142.0800  162.3220 N.am    1  UNL1       -0.2529
     12 C         138.8069  141.0905  161.7361 C.2     1  UNL1        0.2566
     13 O         137.9669  141.4716  160.5532 O.2     1  UNL1       -0.2719
     14 C         139.8932  143.4506  161.7250 C.ar    1  UNL1        0.0770
     15 C         140.6476  143.6453  160.4433 C.ar    1  UNL1        0.1136
     16 N         140.7708  145.0159  159.8463 N.ar    1  UNL1       -0.2410
     17 C         140.1396  146.1917  160.5311 C.ar    1  UNL1        0.0989
     18 C         139.3852  145.9970  161.8129 C.ar    1  UNL1        0.0258
     19 C         139.2620  144.6264  162.4099 C.ar    1  UNL1        0.0881
     20 C         138.5077  144.4317  163.6917 C.3     1  UNL1        0.4198
     21 F         137.7533  144.2370  164.9734 F       1  UNL1       -0.1658
     22 F         139.7153  144.8657  164.4683 F       1  UNL1       -0.1658
     23 F         137.3000  143.9977  162.9150 F       1  UNL1       -0.1658
     24 C         143.0069  139.1850  167.6505 C.3     1  UNL1        0.0769
     25 C         142.4652  139.3503  169.0394 C.3     1  UNL1        0.0459
     26 C         141.6942  140.5849  169.4018 C.ar    1  UNL1        0.0067
     27 C         140.2204  140.4980  169.6668 C.ar    1  UNL1       -0.0020
     28 C         139.4495  141.7326  170.0292 C.ar    1  UNL1       -0.0002
     29 C         140.1523  143.0541  170.1266 C.ar    1  UNL1        0.0023
     30 C         141.6261  143.1411  169.8616 C.ar    1  UNL1        0.0293
     31 C         142.3971  141.9065  169.4992 C.ar    1  UNL1        0.1362
     32 F         143.8710  141.9934  169.2342 F       1  UNL1       -0.2045
@<TRIPOS>BOND
     1     2     1    1
     2     2     3    1
     3     3     4    1
     4     4     5    1
     5     5     6    1
     6     6     7    1
     7     7    24    1
     8    24    25    1
     9    25    26    1
    10    26    27   ar
    11    27    28   ar
    12    28    29   ar
    13    29    30   ar
    14    30    31   ar
    15    31    32    1
    16     7     8    1
    17     8     9    1
    18     4    10    1
    19    10    11    1
    20    11    14    1
    21    14    15   ar
    22    15    16   ar
    23    16    17   ar
    24    17    18   ar
    25    18    19   ar
    26    19    20    1
    27    20    21    1
    28    20    22    1
    29    20    23    1
    30    11    12   am
    31    12    13    2
    32    12     2    1
    33     9     4    1
    34    19    14   ar
    35    31    26   ar
@<TRIPOS>MOLECULE
*****
 32 35 0 0 0
SMALL
GASTEIGER

@<TRIPOS>ATOM
      1 C         137.5243  138.2438  167.0138 C.3     1  UNL1        0.0420
      2 C         138.3480  139.4467  166.6609 C.3     1  UNL1        0.1912
      3 O         138.2628  140.0365  165.2844 O.3     1  UNL1       -0.3500
      4 C         139.0866  141.2394  164.9314 C.3     1  UNL1        0.1145
      5 C         139.9103  142.4423  164.5786 C.3     1  UNL1        0.0463
      6 C         139.8251  143.0320  163.2020 C.3     1  UNL1        0.0746
      7 N         138.9162  142.4188  162.1784 N.3     1  UNL1       -0.2722
      8 C         138.0924  141.2160  162.5312 C.3     1  UNL1        0.0746
      9 C         138.1776  140.6263  163.9078 C.3     1  UNL1        0.0463
     10 C         139.9955  141.8525  165.9551 C.3     1  UNL1        0.1254
     11 N         140.0806  141.2627  167.3317 N.am    1  UNL1       -0.2529
     12 C         139.2569  140.0599  167.6846 C.2     1  UNL1        0.2566
     13 O         139.3421  139.4701  169.0612 O.2     1  UNL1       -0.2719
     14 C         140.9896  141.8759  168.3554 C.ar    1  UNL1        0.0770
     15 C         140.5084  143.0216  169.1954 C.ar    1  UNL1        0.1136
     16 N         141.4173  143.6348  170.2191 N.ar    1  UNL1       -0.2410
     17 C         142.8074  143.1021  170.4028 C.ar    1  UNL1        0.0989
     18 C         143.2887  141.9563  169.5628 C.ar    1  UNL1        0.0258
     19 C         142.3798  141.3431  168.5391 C.ar    1  UNL1        0.0881
     20 C         142.8610  140.1974  167.6992 C.3     1  UNL1        0.4198
     21 F         143.3422  139.0516  166.8592 F       1  UNL1       -0.1658
     22 F         143.2433  141.1559  166.6106 F       1  UNL1       -0.1658
     23 F         142.4786  139.2388  168.7877 F       1  UNL1       -0.1658
     24 C         138.8310  143.0086  160.8018 C.3     1  UNL1        0.0769
     25 C         139.4430  142.2874  159.6376 C.3     1  UNL1        0.0459
     26 C         138.7091  142.2130  158.3315 C.ar    1  UNL1        0.0067
     27 C         138.9456  143.2542  157.2779 C.ar    1  UNL1       -0.0020
     28 C         138.2118  143.1797  155.9719 C.ar    1  UNL1       -0.0002
     29 C         137.2414  142.0641  155.7194 C.ar    1  UNL1        0.0023
     30 C         137.0049  141.0229  156.7729 C.ar    1  UNL1        0.0293
     31 C         137.7388  141.0974  158.0790 C.ar    1  UNL1        0.1362
     32 F         137.5023  140.0562  159.1326 F       1  UNL1       -0.2045
@<TRIPOS>BOND
     1     2     1    1
     2     2     3    1
     3     3     4    1
     4     4     5    1
     5     5     6    1
     6     6     7    1
     7     7    24    1
     8    24    25    1
     9    25    26    1
    10    26    27   ar
    11    27    28   ar
    12    28    29   ar
    13    29    30   ar
    14    30    31   ar
    15    31    32    1
    16     7     8    1
    17     8     9    1
    18     4    10    1
    19    10    11    1
    20    11    14    1
    21    14    15   ar
    22    15    16   ar
    23    16    17   ar
    24    17    18   ar
    25    18    19   ar
    26    19    20    1
    27    20    21    1
    28    20    22    1
    29    20    23    1
    30    11    12   am
    31    12    13    2
    32    12     2    1
    33     9     4    1
    34    19    14   ar
    35    31    26   ar
@<TRIPOS>MOLECULE
*****
 32 35 0 0 0
SMALL
GASTEIGER

@<TRIPOS>ATOM
      1 C         137.1991  138.0560  167.4000 C.3     1  UNL1        0.0420
      2 C         138.2084  139.0499  166.9065 C.3     1  UNL1        0.1912
      3 O         138.3671  139.2898  165.4344 O.3     1  UNL1       -0.3500
      4 C         139.3765  140.2837  164.9409 C.3     1  UNL1        0.1145
      5 C         140.3858  141.2775  164.4475 C.3     1  UNL1        0.0463
      6 C         140.5445  141.5174  162.9753 C.3     1  UNL1        0.0746
      7 N         139.6939  140.7634  161.9966 N.3     1  UNL1       -0.2722
      8 C         138.6845  139.7696  162.4900 C.3     1  UNL1        0.0746
      9 C         138.5259  139.5297  163.9621 C.3     1  UNL1        0.0463
     10 C         140.2271  141.0377  165.9196 C.3     1  UNL1        0.1254
     11 N         140.0684  140.7978  167.3918 N.am    1  UNL1       -0.2529
     12 C         139.0591  139.8039  167.8852 C.2     1  UNL1        0.2566
     13 O         138.9003  139.5640  169.3574 O.2     1  UNL1       -0.2719
     14 C         140.9190  141.5518  168.3706 C.ar    1  UNL1        0.0770
     15 C         140.4158  142.8301  168.9726 C.ar    1  UNL1        0.1136
     16 N         141.2664  143.5841  169.9513 N.ar    1  UNL1       -0.2410
     17 C         142.6203  143.0597  170.3280 C.ar    1  UNL1        0.0989
     18 C         143.1236  141.7813  169.7260 C.ar    1  UNL1        0.0258
     19 C         142.2730  141.0273  168.7473 C.ar    1  UNL1        0.0881
     20 C         142.7762  139.7489  168.1453 C.3     1  UNL1        0.4198
     21 F         143.2795  138.4706  167.5433 F       1  UNL1       -0.1658
     22 F         142.2643  138.9884  169.3324 F       1  UNL1       -0.1658
     23 F         143.2882  140.5095  166.9581 F       1  UNL1       -0.1658
     24 C         139.8526  141.0033  160.5244 C.3     1  UNL1        0.0769
     25 C         141.1703  141.4668  159.9778 C.3     1  UNL1        0.0459
     26 C         141.2972  142.8416  159.3914 C.ar    1  UNL1        0.0067
     27 C         140.8336  144.0357  160.1719 C.ar    1  UNL1       -0.0020
     28 C         140.9606  145.4104  159.5854 C.ar    1  UNL1       -0.0002
     29 C         141.5511  145.5911  158.2184 C.ar    1  UNL1        0.0023
     30 C         142.0146  144.3970  157.4379 C.ar    1  UNL1        0.0293
     31 C         141.8877  143.0223  158.0244 C.ar    1  UNL1        0.1362
     32 F         142.3513  141.8281  157.2438 F       1  UNL1       -0.2045
@<TRIPOS>BOND
     1     2     1    1
     2     2     3    1
     3     3     4    1
     4     4     5    1
     5     5     6    1
     6     6     7    1
     7     7    24    1
     8    24    25    1
     9    25    26    1
    10    26    27   ar
    11    27    28   ar
    12    28    29   ar
    13    29    30   ar
    14    30    31   ar
    15    31    32    1
    16     7     8    1
    17     8     9    1
    18     4    10    1
    19    10    11    1
    20    11    14    1
    21    14    15   ar
    22    15    16   ar
    23    16    17   ar
    24    17    18   ar
    25    18    19   ar
    26    19    20    1
    27    20    21    1
    28    20    22    1
    29    20    23    1
    30    11    12   am
    31    12    13    2
    32    12     2    1
    33     9     4    1
    34    19    14   ar
    35    31    26   ar
@<TRIPOS>MOLECULE
*****
 32 35 0 0 0
SMALL
GASTEIGER

@<TRIPOS>ATOM
      1 C         144.0870  137.6951  166.6230 C.3     1  UNL1        0.0420
      2 C         142.7824  138.4257  166.5029 C.3     1  UNL1        0.1912
      3 O         141.9089  138.2084  165.3030 O.3     1  UNL1       -0.3500
      4 C         140.6043  138.9390  165.1829 C.3     1  UNL1        0.1145
      5 C         139.2998  139.6696  165.0628 C.3     1  UNL1        0.0463
      6 C         138.4263  139.4524  163.8629 C.3     1  UNL1        0.0746
      7 N         138.8572  138.5045  162.7832 N.3     1  UNL1       -0.2722
      8 C         140.1617  137.7739  162.9033 C.3     1  UNL1        0.0746
      9 C         141.0353  137.9912  164.1031 C.3     1  UNL1        0.0463
     10 C         140.1733  139.8869  166.2626 C.3     1  UNL1        0.1254
     11 N         141.0469  140.1041  167.4625 N.am    1  UNL1       -0.2529
     12 C         142.3514  139.3735  167.5826 C.2     1  UNL1        0.2566
     13 O         143.2250  139.5907  168.7825 O.2     1  UNL1       -0.2719
     14 C         140.6160  141.0519  168.5423 C.ar    1  UNL1        0.0770
     15 C         139.5167  140.6638  169.4862 C.ar    1  UNL1        0.1136
     16 N         139.0857  141.6116  170.5659 N.ar    1  UNL1       -0.2410
     17 C         139.7540  142.9476  170.7018 C.ar    1  UNL1        0.0989
     18 C         140.8533  143.3358  169.7579 C.ar    1  UNL1        0.0258
     19 C         141.2843  142.3880  168.6781 C.ar    1  UNL1        0.0881
     20 C         142.3835  142.7761  167.7342 C.3     1  UNL1        0.4198
     21 F         143.4828  143.1643  166.7904 F       1  UNL1       -0.1658
     22 F         141.3768  142.9605  166.6377 F       1  UNL1       -0.1658
     23 F         143.3902  142.5918  168.8308 F       1  UNL1       -0.1658
     24 C         137.9836  138.2873  161.5833 C.3     1  UNL1        0.0769
     25 C         137.4998  139.4617  160.7853 C.3     1  UNL1        0.0459
     26 C         138.4628  140.5339  160.3695 C.ar    1  UNL1        0.0067
     27 C         139.4681  140.2616  159.2900 C.ar    1  UNL1       -0.0020
     28 C         140.4310  141.3338  158.8742 C.ar    1  UNL1       -0.0002
     29 C         140.3888  142.6784  159.5379 C.ar    1  UNL1        0.0023
     30 C         139.3836  142.9507  160.6174 C.ar    1  UNL1        0.0293
     31 C         138.4206  141.8784  161.0332 C.ar    1  UNL1        0.1362
     32 F         137.4153  142.1507  162.1127 F       1  UNL1       -0.2045
@<TRIPOS>BOND
     1     2     1    1
     2     2     3    1
     3     3     4    1
     4     4     5    1
     5     5     6    1
     6     6     7    1
     7     7    24    1
     8    24    25    1
     9    25    26    1
    10    26    27   ar
    11    27    28   ar
    12    28    29   ar
    13    29    30   ar
    14    30    31   ar
    15    31    32    1
    16     7     8    1
    17     8     9    1
    18     4    10    1
    19    10    11    1
    20    11    14    1
    21    14    15   ar
    22    15    16   ar
    23    16    17   ar
    24    17    18   ar
    25    18    19   ar
    26    19    20    1
    27    20    21    1
    28    20    22    1
    29    20    23    1
    30    11    12   am
    31    12    13    2
    32    12     2    1
    33     9     4    1
    34    19    14   ar
    35    31    26   ar
@<TRIPOS>MOLECULE
*****
 32 35 0 0 0
SMALL
GASTEIGER

@<TRIPOS>ATOM
      1 C         143.1608  145.1596  163.5766 C.3     1  UNL1        0.0420
      2 C         142.1476  144.3045  162.8749 C.3     1  UNL1        0.1912
      3 O         141.7282  144.6359  161.4734 O.3     1  UNL1       -0.3500
      4 C         140.7150  143.7808  160.7717 C.3     1  UNL1        0.1145
      5 C         139.7019  142.9257  160.0700 C.3     1  UNL1        0.0463
      6 C         139.2825  143.2570  158.6685 C.3     1  UNL1        0.0746
      7 N         139.8762  144.4435  157.9686 N.3     1  UNL1       -0.2722
      8 C         140.8894  145.2986  158.6703 C.3     1  UNL1        0.0746
      9 C         141.3088  144.9672  160.0718 C.3     1  UNL1        0.0463
     10 C         140.1212  142.5943  161.4715 C.3     1  UNL1        0.1254
     11 N         140.5407  142.2630  162.8731 N.am    1  UNL1       -0.2529
     12 C         141.5538  143.1181  163.5747 C.2     1  UNL1        0.2566
     13 O         141.9732  142.7867  164.9763 O.2     1  UNL1       -0.2719
     14 C         139.9469  141.0765  163.5730 C.ar    1  UNL1        0.0770
     15 C         140.5765  139.7236  163.4211 C.ar    1  UNL1        0.1136
     16 N         139.9828  138.5372  164.1210 N.ar    1  UNL1       -0.2410
     17 C         138.7594  138.7037  164.9727 C.ar    1  UNL1        0.0989
     18 C         138.1297  140.0566  165.1246 C.ar    1  UNL1        0.0258
     19 C         138.7234  141.2431  164.4248 C.ar    1  UNL1        0.0881
     20 C         138.0938  142.5960  164.5766 C.3     1  UNL1        0.4198
     21 F         137.4641  143.9489  164.7285 F       1  UNL1       -0.1658
     22 F         139.0114  142.8941  165.7251 F       1  UNL1       -0.1658
     23 F         137.1761  142.2979  163.4282 F       1  UNL1       -0.1658
     24 C         139.4568  144.7748  156.5670 C.3     1  UNL1        0.0769
     25 C         140.2626  145.7424  155.7519 C.3     1  UNL1        0.0459
     26 C         139.7891  147.1554  155.5808 C.ar    1  UNL1        0.0067
     27 C         138.9575  147.8022  156.6486 C.ar    1  UNL1       -0.0020
     28 C         138.4840  149.2151  156.4774 C.ar    1  UNL1       -0.0002
     29 C         138.8421  149.9813  155.2385 C.ar    1  UNL1        0.0023
     30 C         139.6737  149.3345  154.1708 C.ar    1  UNL1        0.0293
     31 C         140.1472  147.9215  154.3420 C.ar    1  UNL1        0.1362
     32 F         140.9788  147.2747  153.2742 F       1  UNL1       -0.2045
@<TRIPOS>BOND
     1     2     1    1
     2     2     3    1
     3     3     4    1
     4     4     5    1
     5     5     6    1
     6     6     7    1
     7     7    24    1
     8    24    25    1
     9    25    26    1
    10    26    27   ar
    11    27    28   ar
    12    28    29   ar
    13    29    30   ar
    14    30    31   ar
    15    31    32    1
    16     7     8    1
    17     8     9    1
    18     4    10    1
    19    10    11    1
    20    11    14    1
    21    14    15   ar
    22    15    16   ar
    23    16    17   ar
    24    17    18   ar
    25    18    19   ar
    26    19    20    1
    27    20    21    1
    28    20    22    1
    29    20    23    1
    30    11    12   am
    31    12    13    2
    32    12     2    1
    33     9     4    1
    34    19    14   ar
    35    31    26   ar
@<TRIPOS>MOLECULE
*****
 32 35 0 0 0
SMALL
GASTEIGER

@<TRIPOS>ATOM
      1 C         138.5743  144.9356  165.5604 C.3     1  UNL1        0.0420
      2 C         139.4725  144.2181  164.5968 C.3     1  UNL1        0.1912
      3 O         139.6684  144.7569  163.2107 O.3     1  UNL1       -0.3500
      4 C         140.5666  144.0394  162.2471 C.3     1  UNL1        0.1145
      5 C         141.4647  143.3218  161.2835 C.3     1  UNL1        0.0463
      6 C         141.6606  143.8606  159.8974 C.3     1  UNL1        0.0746
      7 N         140.9583  145.1169  159.4749 N.3     1  UNL1       -0.2722
      8 C         140.0602  145.8344  160.4384 C.3     1  UNL1        0.0746
      9 C         139.8643  145.2957  161.8245 C.3     1  UNL1        0.0463
     10 C         141.2688  142.7830  162.6696 C.3     1  UNL1        0.1254
     11 N         141.0729  142.2443  164.0558 N.am    1  UNL1       -0.2529
     12 C         140.1748  142.9618  165.0193 C.2     1  UNL1        0.2566
     13 O         139.9789  142.4230  166.4055 O.2     1  UNL1       -0.2719
     14 C         141.7752  140.9880  164.4783 C.ar    1  UNL1        0.0770
     15 C         141.1213  139.6551  164.2645 C.ar    1  UNL1        0.1136
     16 N         141.8236  138.3988  164.6870 N.ar    1  UNL1       -0.2410
     17 C         143.1797  138.4754  165.3234 C.ar    1  UNL1        0.0989
     18 C         143.8336  139.8083  165.5372 C.ar    1  UNL1        0.0258
     19 C         143.1314  141.0646  165.1147 C.ar    1  UNL1        0.0881
     20 C         143.7852  142.3975  165.3285 C.3     1  UNL1        0.4198
     21 F         144.4391  143.7304  165.5424 F       1  UNL1       -0.1658
     22 F         143.2127  142.4562  166.7137 F       1  UNL1       -0.1658
     23 F         144.3578  142.3388  163.9434 F       1  UNL1       -0.1658
     24 C         141.1542  145.6557  158.0887 C.3     1  UNL1        0.0769
     25 C         140.0125  145.6561  157.1159 C.3     1  UNL1        0.0459
     26 C         140.0038  146.6243  155.9701 C.ar    1  UNL1        0.0067
     27 C         140.7518  146.3023  154.7105 C.ar    1  UNL1       -0.0020
     28 C         140.7430  147.2704  153.5648 C.ar    1  UNL1       -0.0002
     29 C         139.9862  148.5604  153.6787 C.ar    1  UNL1        0.0023
     30 C         139.2382  148.8824  154.9384 C.ar    1  UNL1        0.0293
     31 C         139.2470  147.9143  156.0841 C.ar    1  UNL1        0.1362
     32 F         138.4989  148.2363  157.3438 F       1  UNL1       -0.2045
@<TRIPOS>BOND
     1     2     1    1
     2     2     3    1
     3     3     4    1
     4     4     5    1
     5     5     6    1
     6     6     7    1
     7     7    24    1
     8    24    25    1
     9    25    26    1
    10    26    27   ar
    11    27    28   ar
    12    28    29   ar
    13    29    30   ar
    14    30    31   ar
    15    31    32    1
    16     7     8    1
    17     8     9    1
    18     4    10    1
    19    10    11    1
    20    11    14    1
    21    14    15   ar
    22    15    16   ar
    23    16    17   ar
    24    17    18   ar
    25    18    19   ar
    26    19    20    1
    27    20    21    1
    28    20    22    1
    29    20    23    1
    30    11    12   am
    31    12    13    2
    32    12     2    1
    33     9     4    1
    34    19    14   ar
    35    31    26   ar
