@<TRIPOS>MOLECULE
*****
 28 31 0 0 0
SMALL
GASTEIGER

@<TRIPOS>ATOM
      1 C         144.6075  141.3572  161.4188 C.3     1  UNL1        0.1204
      2 N         143.4600  141.9986  162.1410 N.am    1  UNL1       -0.2509
      3 C         142.7668  143.1076  161.4064 C.2     1  UNL1        0.2540
      4 O         143.3128  143.4284  160.0466 O.2     1  UNL1       -0.2695
      5 C         141.5997  143.9381  161.8516 C.ar    1  UNL1        0.0675
      6 C         141.2144  144.9453  160.8090 C.ar    1  UNL1        0.0058
      7 C         140.0670  145.8792  161.0564 C.ar    1  UNL1        0.0002
      8 C         139.3049  145.8059  162.3463 C.ar    1  UNL1        0.0013
      9 C         139.6902  144.7987  163.3888 C.ar    1  UNL1        0.0150
     10 C         140.8376  143.8648  163.1415 C.ar    1  UNL1        0.0560
     11 N         141.0544  142.9428  164.3047 N.pl3   1  UNL1       -0.2839
     12 C         140.1145  143.1208  165.4601 C.3     1  UNL1        0.1173
     13 C         142.0867  141.8665  164.4654 C.ar    1  UNL1        0.0698
     14 C         141.9556  141.1746  165.7897 C.ar    1  UNL1        0.0502
     15 C         142.8950  140.0624  166.1512 C.ar    1  UNL1        0.1298
     16 N         143.9655  139.6423  165.1883 N.ar    1  UNL1       -0.2280
     17 C         144.0967  140.3342  163.8638 C.ar    1  UNL1        0.1164
     18 C         143.1573  141.4463  163.5024 C.ar    1  UNL1        0.0872
     19 N         142.7638  139.3706  167.4756 N.pl3   1  UNL1       -0.3197
     20 H         143.0693  138.4403  167.5774 H       1  UNL1        0.1481
     21 C         142.1670  140.0961  168.6449 C.3     1  UNL1        0.0705
     22 C         140.7351  139.8585  169.0237 C.3     1  UNL1        0.0220
     23 C         140.1384  140.5841  170.1931 C.3     1  UNL1        0.0309
     24 C         140.9734  141.5471  170.9837 C.3     1  UNL1        0.1106
     25 O         140.3765  142.2727  172.1531 O.3     1  UNL1       -0.3845
     26 C         142.4052  141.7847  170.6050 C.3     1  UNL1        0.0309
     27 C         143.0020  141.0592  169.4356 C.3     1  UNL1        0.0220
     28 H         139.4500  142.0064  172.2601 H       1  UNL1        0.2103
@<TRIPOS>BOND
     1     1     2    1
     2     2     3   am
     3     3     4    2
     4     3     5    1
     5     5     6   ar
     6     6     7   ar
     7     7     8   ar
     8     8     9   ar
     9     9    10   ar
    10    10    11    1
    11    11    12    1
    12    11    13    1
    13    13    14   ar
    14    14    15   ar
    15    15    19    1
    16    21    19    1
    17    21    22    1
    18    22    23    1
    19    23    24    1
    20    24    25    1
    21    24    26    1
    22    26    27    1
    23    15    16   ar
    24    16    17   ar
    25    17    18   ar
    26    18     2    1
    27    10     5   ar
    28    18    13   ar
    29    27    21    1
    30    19    20    1
    31    25    28    1
@<TRIPOS>MOLECULE
*****
 28 31 0 0 0
SMALL
GASTEIGER

@<TRIPOS>ATOM
      1 C         138.0865  138.5205  162.0823 C.3     1  UNL1        0.1204
      2 N         138.6740  139.8409  162.4839 N.am    1  UNL1       -0.2509
      3 C         138.8954  140.8206  161.3698 C.2     1  UNL1        0.2540
      4 O         138.4999  140.3503  160.0014 O.2     1  UNL1       -0.2695
      5 C         139.4599  142.2084  161.4431 C.ar    1  UNL1        0.0675
      6 C         139.5106  142.8516  160.0890 C.ar    1  UNL1        0.0058
      7 C         140.0438  144.2457  159.9404 C.ar    1  UNL1        0.0002
      8 C         140.5264  144.9966  161.1459 C.ar    1  UNL1        0.0013
      9 C         140.4757  144.3534  162.5000 C.ar    1  UNL1        0.0150
     10 C         139.9425  142.9593  162.6486 C.ar    1  UNL1        0.0560
     11 N         139.9797  142.5078  164.0786 N.pl3   1  UNL1       -0.2839
     12 C         140.5252  143.5016  165.0608 C.3     1  UNL1        0.1173
     13 C         139.5436  141.1939  164.6562 C.ar    1  UNL1        0.0698
     14 C         139.7524  141.1517  166.1410 C.ar    1  UNL1        0.0502
     15 C         139.3801  139.9226  166.9161 C.ar    1  UNL1        0.1298
     16 N         138.7991  138.7358  166.2064 N.ar    1  UNL1       -0.2280
     17 C         138.5903  138.7780  164.7216 C.ar    1  UNL1        0.1164
     18 C         138.9625  140.0071  163.9465 C.ar    1  UNL1        0.0872
     19 N         139.5890  139.8805  168.4009 N.pl3   1  UNL1       -0.3197
     20 H         139.0974  139.2266  168.9487 H       1  UNL1        0.1481
     21 C         140.5467  140.8344  169.0510 C.3     1  UNL1        0.0705
     22 C         140.0433  142.1213  169.6346 C.3     1  UNL1        0.0220
     23 C         141.0011  143.0752  170.2847 C.3     1  UNL1        0.0309
     24 C         142.4622  142.7423  170.3512 C.3     1  UNL1        0.1106
     25 O         143.4199  143.6964  171.0014 O.3     1  UNL1       -0.3845
     26 C         142.9655  141.4555  169.7675 C.3     1  UNL1        0.0309
     27 C         142.0078  140.5015  169.1174 C.3     1  UNL1        0.0220
     28 H         142.9348  144.4721  171.3235 H       1  UNL1        0.2103
@<TRIPOS>BOND
     1     1     2    1
     2     2     3   am
     3     3     4    2
     4     3     5    1
     5     5     6   ar
     6     6     7   ar
     7     7     8   ar
     8     8     9   ar
     9     9    10   ar
    10    10    11    1
    11    11    12    1
    12    11    13    1
    13    13    14   ar
    14    14    15   ar
    15    15    19    1
    16    21    19    1
    17    21    22    1
    18    22    23    1
    19    23    24    1
    20    24    25    1
    21    24    26    1
    22    26    27    1
    23    15    16   ar
    24    16    17   ar
    25    17    18   ar
    26    18     2    1
    27    10     5   ar
    28    18    13   ar
    29    27    21    1
    30    19    20    1
    31    25    28    1
@<TRIPOS>MOLECULE
*****
 28 31 0 0 0
SMALL
GASTEIGER

@<TRIPOS>ATOM
      1 C         141.2492  139.2670  161.3707 C.3     1  UNL1        0.1204
      2 N         140.8103  140.5490  162.0139 N.am    1  UNL1       -0.2509
      3 C         140.8272  141.7601  161.1291 C.2     1  UNL1        0.2540
      4 O         141.2807  141.5291  159.7181 O.2     1  UNL1       -0.2695
      5 C         140.4505  143.1718  161.4687 C.ar    1  UNL1        0.0675
      6 C         140.6126  144.0816  160.2872 C.ar    1  UNL1        0.0058
      7 C         140.2881  145.5405  160.4140 C.ar    1  UNL1        0.0002
      8 C         139.8015  146.0897  161.7223 C.ar    1  UNL1        0.0013
      9 C         139.6394  145.1800  162.9038 C.ar    1  UNL1        0.0150
     10 C         139.9639  143.7210  162.7770 C.ar    1  UNL1        0.0560
     11 N         139.7339  142.9941  164.0688 N.pl3   1  UNL1       -0.2839
     12 C         139.2386  143.8339  165.2088 C.3     1  UNL1        0.1173
     13 C         139.9336  141.5386  164.3714 C.ar    1  UNL1        0.0698
     14 C         139.5844  141.2219  165.7954 C.ar    1  UNL1        0.0502
     15 C         139.7143  139.8171  166.3049 C.ar    1  UNL1        0.1298
     16 N         140.1933  138.7289  165.3904 N.ar    1  UNL1       -0.2280
     17 C         140.5425  139.0456  163.9663 C.ar    1  UNL1        0.1164
     18 C         140.4126  140.4504  163.4569 C.ar    1  UNL1        0.0872
     19 N         139.3650  139.5005  167.7289 N.pl3   1  UNL1       -0.3197
     20 H         138.6600  138.8430  167.9283 H       1  UNL1        0.1481
     21 C         140.0900  140.1858  168.8491 C.3     1  UNL1        0.0705
     22 C         141.5194  139.8374  169.1414 C.3     1  UNL1        0.0220
     23 C         142.2443  140.5227  170.2616 C.3     1  UNL1        0.0309
     24 C         141.5398  141.5563  171.0895 C.3     1  UNL1        0.1106
     25 O         142.2648  142.2415  172.2097 O.3     1  UNL1       -0.3845
     26 C         140.1104  141.9046  170.7972 C.3     1  UNL1        0.0309
     27 C         139.3855  141.2194  169.6770 C.3     1  UNL1        0.0220
     28 H         143.1722  141.9028  172.2626 H       1  UNL1        0.2103
@<TRIPOS>BOND
     1     1     2    1
     2     2     3   am
     3     3     4    2
     4     3     5    1
     5     5     6   ar
     6     6     7   ar
     7     7     8   ar
     8     8     9   ar
     9     9    10   ar
    10    10    11    1
    11    11    12    1
    12    11    13    1
    13    13    14   ar
    14    14    15   ar
    15    15    19    1
    16    21    19    1
    17    21    22    1
    18    22    23    1
    19    23    24    1
    20    24    25    1
    21    24    26    1
    22    26    27    1
    23    15    16   ar
    24    16    17   ar
    25    17    18   ar
    26    18     2    1
    27    10     5   ar
    28    18    13   ar
    29    27    21    1
    30    19    20    1
    31    25    28    1
@<TRIPOS>MOLECULE
*****
 28 31 0 0 0
SMALL
GASTEIGER

@<TRIPOS>ATOM
      1 C         138.2359  137.9510  162.5425 C.3     1  UNL1        0.1204
      2 N         139.4982  138.6820  162.8919 N.am    1  UNL1       -0.2509
      3 C         140.4543  138.9083  161.7584 C.2     1  UNL1        0.2540
      4 O         140.0216  138.3736  160.4254 O.2     1  UNL1       -0.2695
      5 C         141.7859  139.5985  161.7816 C.ar    1  UNL1        0.0675
      6 C         142.4222  139.6077  160.4233 C.ar    1  UNL1        0.0058
      7 C         143.7628  140.2513  160.2275 C.ar    1  UNL1        0.0002
      8 C         144.4672  140.8857  161.3900 C.ar    1  UNL1        0.0013
      9 C         143.8309  140.8765  162.7483 C.ar    1  UNL1        0.0150
     10 C         142.4903  140.2329  162.9441 C.ar    1  UNL1        0.0560
     11 N         142.0370  140.3338  164.3705 N.pl3   1  UNL1       -0.2839
     12 C         142.9777  141.0362  165.3041 C.3     1  UNL1        0.1173
     13 C         140.7675  139.8252  164.9867 C.ar    1  UNL1        0.0698
     14 C         140.7065  140.1370  166.4526 C.ar    1  UNL1        0.0502
     15 C         139.5156  139.7138  167.2605 C.ar    1  UNL1        0.1298
     16 N         138.3858  138.9787  166.6025 N.ar    1  UNL1       -0.2280
     17 C         138.4468  138.6668  165.1365 C.ar    1  UNL1        0.1164
     18 C         139.6377  139.0901  164.3286 C.ar    1  UNL1        0.0872
     19 N         139.4547  140.0257  168.7264 N.pl3   1  UNL1       -0.3197
     20 H         138.7740  139.5960  169.2932 H       1  UNL1        0.1481
     21 C         140.4308  140.9922  169.3288 C.3     1  UNL1        0.0705
     22 C         141.7072  140.4891  169.9352 C.3     1  UNL1        0.0220
     23 C         142.6834  141.4557  170.5376 C.3     1  UNL1        0.0309
     24 C         142.3831  142.9253  170.5336 C.3     1  UNL1        0.1106
     25 O         143.3594  143.8918  171.1361 O.3     1  UNL1       -0.3845
     26 C         141.1068  143.4284  169.9272 C.3     1  UNL1        0.0309
     27 C         140.1306  142.4619  169.3248 C.3     1  UNL1        0.0220
     28 H         144.1247  143.4057  171.4808 H       1  UNL1        0.2103
@<TRIPOS>BOND
     1     1     2    1
     2     2     3   am
     3     3     4    2
     4     3     5    1
     5     5     6   ar
     6     6     7   ar
     7     7     8   ar
     8     8     9   ar
     9     9    10   ar
    10    10    11    1
    11    11    12    1
    12    11    13    1
    13    13    14   ar
    14    14    15   ar
    15    15    19    1
    16    21    19    1
    17    21    22    1
    18    22    23    1
    19    23    24    1
    20    24    25    1
    21    24    26    1
    22    26    27    1
    23    15    16   ar
    24    16    17   ar
    25    17    18   ar
    26    18     2    1
    27    10     5   ar
    28    18    13   ar
    29    27    21    1
    30    19    20    1
    31    25    28    1
@<TRIPOS>MOLECULE
*****
 28 31 0 0 0
SMALL
GASTEIGER

@<TRIPOS>ATOM
      1 C         137.7880  138.3451  161.7510 C.3     1  UNL1        0.1204
      2 N         138.5790  139.6195  161.7525 N.am    1  UNL1       -0.2509
      3 C         138.4853  140.4451  160.5037 C.2     1  UNL1        0.2540
      4 O         137.6129  139.8871  159.4186 O.2     1  UNL1       -0.2695
      5 C         139.1485  141.7550  160.1965 C.ar    1  UNL1        0.0675
      6 C         138.7868  142.2442  158.8255 C.ar    1  UNL1        0.0058
      7 C         139.3460  143.5411  158.3202 C.ar    1  UNL1        0.0002
      8 C         140.2668  144.3488  159.1860 C.ar    1  UNL1        0.0013
      9 C         140.6285  143.8597  160.5571 C.ar    1  UNL1        0.0150
     10 C         140.0694  142.5628  161.0623 C.ar    1  UNL1        0.0560
     11 N         140.5543  142.2601  162.4491 N.pl3   1  UNL1       -0.2839
     12 C         141.4775  143.2771  163.0521 C.3     1  UNL1        0.1173
     13 C         140.2383  141.0750  163.3127 C.ar    1  UNL1        0.0698
     14 C         140.9349  141.1615  164.6383 C.ar    1  UNL1        0.0502
     15 C         140.7524  140.0728  165.6539 C.ar    1  UNL1        0.1298
     16 N         139.8733  138.8976  165.3439 N.ar    1  UNL1       -0.2280
     17 C         139.1767  138.8111  164.0182 C.ar    1  UNL1        0.1164
     18 C         139.3592  139.8998  163.0026 C.ar    1  UNL1        0.0872
     19 N         141.4490  140.1593  166.9795 N.pl3   1  UNL1       -0.3197
     20 H         142.3065  139.6954  167.1161 H       1  UNL1        0.1481
     21 C         140.8392  140.9527  168.0968 C.3     1  UNL1        0.0705
     22 C         141.1867  142.4023  168.2639 C.3     1  UNL1        0.0220
     23 C         140.5768  143.1957  169.3814 C.3     1  UNL1        0.0309
     24 C         139.6196  142.5395  170.3317 C.3     1  UNL1        0.1106
     25 O         139.0098  143.3330  171.4491 O.3     1  UNL1       -0.3845
     26 C         139.2722  141.0899  170.1646 C.3     1  UNL1        0.0309
     27 C         139.8820  140.2965  169.0472 C.3     1  UNL1        0.0220
     28 H         139.3376  144.2453  171.4143 H       1  UNL1        0.2103
@<TRIPOS>BOND
     1     1     2    1
     2     2     3   am
     3     3     4    2
     4     3     5    1
     5     5     6   ar
     6     6     7   ar
     7     7     8   ar
     8     8     9   ar
     9     9    10   ar
    10    10    11    1
    11    11    12    1
    12    11    13    1
    13    13    14   ar
    14    14    15   ar
    15    15    19    1
    16    21    19    1
    17    21    22    1
    18    22    23    1
    19    23    24    1
    20    24    25    1
    21    24    26    1
    22    26    27    1
    23    15    16   ar
    24    16    17   ar
    25    17    18   ar
    26    18     2    1
    27    10     5   ar
    28    18    13   ar
    29    27    21    1
    30    19    20    1
    31    25    28    1
@<TRIPOS>MOLECULE
*****
 28 31 0 0 0
SMALL
GASTEIGER

@<TRIPOS>ATOM
      1 C         143.8477  142.8933  161.2041 C.3     1  UNL1        0.1204
      2 N         142.6637  142.2215  161.8338 N.am    1  UNL1       -0.2509
      3 C         141.6431  141.6737  160.8807 C.2     1  UNL1        0.2540
      4 O         141.9415  141.8703  159.4239 O.2     1  UNL1       -0.2695
      5 C         140.3635  140.9554  161.1917 C.ar    1  UNL1        0.0675
      6 C         139.6308  140.5740  159.9397 C.ar    1  UNL1        0.0058
      7 C         138.3231  139.8447  160.0286 C.ar    1  UNL1        0.0002
      8 C         137.7481  139.4967  161.3696 C.ar    1  UNL1        0.0013
      9 C         138.4808  139.8781  162.6216 C.ar    1  UNL1        0.0150
     10 C         139.7885  140.6074  162.5327 C.ar    1  UNL1        0.0560
     11 N         140.3510  140.8918  163.8939 N.pl3   1  UNL1       -0.2839
     12 C         139.5283  140.4098  165.0518 C.3     1  UNL1        0.1173
     13 C         141.6275  141.5944  164.2503 C.ar    1  UNL1        0.0698
     14 C         141.8160  141.6681  165.7365 C.ar    1  UNL1        0.0502
     15 C         143.0337  142.3336  166.3060 C.ar    1  UNL1        0.1298
     16 N         144.0629  142.9254  165.3892 N.ar    1  UNL1       -0.2280
     17 C         143.8744  142.8516  163.9029 C.ar    1  UNL1        0.1164
     18 C         142.6567  142.1862  163.3334 C.ar    1  UNL1        0.0872
     19 N         143.2222  142.4073  167.7922 N.pl3   1  UNL1       -0.3197
     20 H         143.9352  142.9708  168.1707 H       1  UNL1        0.1481
     21 C         142.3243  141.6224  168.7020 C.3     1  UNL1        0.0705
     22 C         141.1026  142.2660  169.2880 C.3     1  UNL1        0.0220
     23 C         140.2047  141.4810  170.1977 C.3     1  UNL1        0.0309
     24 C         140.5284  140.0526  170.5214 C.3     1  UNL1        0.1106
     25 O         139.6304  139.2677  171.4312 O.3     1  UNL1       -0.3845
     26 C         141.7501  139.4091  169.9354 C.3     1  UNL1        0.0309
     27 C         142.6480  140.1939  169.0257 C.3     1  UNL1        0.0220
     28 H         138.8929  139.8279  171.7196 H       1  UNL1        0.2103
@<TRIPOS>BOND
     1     1     2    1
     2     2     3   am
     3     3     4    2
     4     3     5    1
     5     5     6   ar
     6     6     7   ar
     7     7     8   ar
     8     8     9   ar
     9     9    10   ar
    10    10    11    1
    11    11    12    1
    12    11    13    1
    13    13    14   ar
    14    14    15   ar
    15    15    19    1
    16    21    19    1
    17    21    22    1
    18    22    23    1
    19    23    24    1
    20    24    25    1
    21    24    26    1
    22    26    27    1
    23    15    16   ar
    24    16    17   ar
    25    17    18   ar
    26    18     2    1
    27    10     5   ar
    28    18    13   ar
    29    27    21    1
    30    19    20    1
    31    25    28    1
@<TRIPOS>MOLECULE
*****
 28 31 0 0 0
SMALL
GASTEIGER

@<TRIPOS>ATOM
      1 C         137.7308  138.7743  167.0062 C.3     1  UNL1        0.1204
      2 N         138.9878  139.5911  166.9550 N.am    1  UNL1       -0.2509
      3 C         139.5384  140.0222  168.2820 C.2     1  UNL1        0.2540
      4 O         138.7592  139.5794  169.4848 O.2     1  UNL1       -0.2695
      5 C         140.7652  140.8375  168.5653 C.ar    1  UNL1        0.0675
      6 C         140.9582  141.0434  170.0385 C.ar    1  UNL1        0.0058
      7 C         142.1304  141.8348  170.5379 C.ar    1  UNL1        0.0002
      8 C         143.1096  142.4205  169.5641 C.ar    1  UNL1        0.0013
      9 C         142.9166  142.2146  168.0910 C.ar    1  UNL1        0.0150
     10 C         141.7444  141.4232  167.5916 C.ar    1  UNL1        0.0560
     11 N         141.7386  141.3381  166.0940 N.pl3   1  UNL1       -0.2839
     12 C         142.8686  142.0372  165.3980 C.3     1  UNL1        0.1173
     13 C         140.7523  140.6464  165.2002 C.ar    1  UNL1        0.0698
     14 C         141.1172  140.8059  163.7541 C.ar    1  UNL1        0.0502
     15 C         140.2580  140.1879  162.6912 C.ar    1  UNL1        0.1298
     16 N         139.0338  139.4105  163.0743 N.ar    1  UNL1       -0.2280
     17 C         138.6688  139.2510  164.5205 C.ar    1  UNL1        0.1164
     18 C         139.5280  139.8689  165.5835 C.ar    1  UNL1        0.0872
     19 N         140.6231  140.3475  161.2451 N.pl3   1  UNL1       -0.3197
     20 H         140.6383  139.5620  160.6517 H       1  UNL1        0.1481
     21 C         140.9649  141.7036  160.7030 C.3     1  UNL1        0.0705
     22 C         142.3874  142.0399  160.3660 C.3     1  UNL1        0.0220
     23 C         142.7292  143.3961  159.8239 C.3     1  UNL1        0.0309
     24 C         141.6487  144.4160  159.6188 C.3     1  UNL1        0.1106
     25 O         141.9906  145.7722  159.0767 O.3     1  UNL1       -0.3845
     26 C         140.2262  144.0797  159.9558 C.3     1  UNL1        0.0309
     27 C         139.8843  142.7236  160.4979 C.3     1  UNL1        0.0220
     28 H         142.9454  145.8239  158.9135 H       1  UNL1        0.2103
@<TRIPOS>BOND
     1     1     2    1
     2     2     3   am
     3     3     4    2
     4     3     5    1
     5     5     6   ar
     6     6     7   ar
     7     7     8   ar
     8     8     9   ar
     9     9    10   ar
    10    10    11    1
    11    11    12    1
    12    11    13    1
    13    13    14   ar
    14    14    15   ar
    15    15    19    1
    16    21    19    1
    17    21    22    1
    18    22    23    1
    19    23    24    1
    20    24    25    1
    21    24    26    1
    22    26    27    1
    23    15    16   ar
    24    16    17   ar
    25    17    18   ar
    26    18     2    1
    27    10     5   ar
    28    18    13   ar
    29    27    21    1
    30    19    20    1
    31    25    28    1
@<TRIPOS>MOLECULE
*****
 28 31 0 0 0
SMALL
GASTEIGER

@<TRIPOS>ATOM
      1 C         138.1449  143.7139  162.6302 C.3     1  UNL1        0.1204
      2 N         138.6364  142.3505  162.2438 N.am    1  UNL1       -0.2509
      3 C         138.6343  142.0502  160.7742 C.2     1  UNL1        0.2540
      4 O         138.1410  143.1531  159.8853 O.2     1  UNL1       -0.2695
      5 C         139.0603  140.7928  160.0758 C.ar    1  UNL1        0.0675
      6 C         138.8972  140.9094  158.5893 C.ar    1  UNL1        0.0058
      7 C         139.2674  139.7584  157.7017 C.ar    1  UNL1        0.0002
      8 C         139.8007  138.4907  158.3005 C.ar    1  UNL1        0.0013
      9 C         139.9638  138.3741  159.7870 C.ar    1  UNL1        0.0150
     10 C         139.5936  139.5252  160.6747 C.ar    1  UNL1        0.0560
     11 N         139.8326  139.2018  162.1198 N.pl3   1  UNL1       -0.2839
     12 C         140.3791  137.8330  162.3986 C.3     1  UNL1        0.1173
     13 C         139.5974  140.0661  163.3230 C.ar    1  UNL1        0.0698
     14 C         139.9707  139.3553  164.5899 C.ar    1  UNL1        0.0502
     15 C         139.8116  140.0456  165.9121 C.ar    1  UNL1        0.1298
     16 N         139.2793  141.4468  165.9673 N.ar    1  UNL1       -0.2280
     17 C         138.9060  142.1578  164.7003 C.ar    1  UNL1        0.1164
     18 C         139.0650  141.4674  163.3781 C.ar    1  UNL1        0.0872
     19 N         140.1849  139.3346  167.1790 N.pl3   1  UNL1       -0.3197
     20 H         140.0893  138.3567  167.2412 H       1  UNL1        0.1481
     21 C         140.7038  140.1134  168.3512 C.3     1  UNL1        0.0705
     22 C         142.1648  140.4393  168.4477 C.3     1  UNL1        0.0220
     23 C         142.6836  141.2182  169.6200 C.3     1  UNL1        0.0309
     24 C         141.7416  141.6711  170.6957 C.3     1  UNL1        0.1106
     25 O         142.2605  142.4499  171.8680 O.3     1  UNL1       -0.3845
     26 C         140.2806  141.3451  170.5993 C.3     1  UNL1        0.0309
     27 C         139.7617  140.5663  169.4271 C.3     1  UNL1        0.0220
     28 H         143.2183  142.5731  171.7759 H       1  UNL1        0.2103
@<TRIPOS>BOND
     1     1     2    1
     2     2     3   am
     3     3     4    2
     4     3     5    1
     5     5     6   ar
     6     6     7   ar
     7     7     8   ar
     8     8     9   ar
     9     9    10   ar
    10    10    11    1
    11    11    12    1
    12    11    13    1
    13    13    14   ar
    14    14    15   ar
    15    15    19    1
    16    21    19    1
    17    21    22    1
    18    22    23    1
    19    23    24    1
    20    24    25    1
    21    24    26    1
    22    26    27    1
    23    15    16   ar
    24    16    17   ar
    25    17    18   ar
    26    18     2    1
    27    10     5   ar
    28    18    13   ar
    29    27    21    1
    30    19    20    1
    31    25    28    1
@<TRIPOS>MOLECULE
*****
 28 31 0 0 0
SMALL
GASTEIGER

@<TRIPOS>ATOM
      1 C         143.9445  137.7728  166.8878 C.3     1  UNL1        0.1204
      2 N         143.0916  138.9930  167.0708 N.am    1  UNL1       -0.2509
      3 C         142.6487  139.2727  168.4764 C.2     1  UNL1        0.2540
      4 O         143.1174  138.2951  169.5131 O.2     1  UNL1       -0.2695
      5 C         141.7992  140.4006  168.9825 C.ar    1  UNL1        0.0675
      6 C         141.5922  140.3083  170.4653 C.ar    1  UNL1        0.0058
      7 C         140.7688  141.3428  171.1734 C.ar    1  UNL1        0.0002
      8 C         140.1522  142.4697  170.3988 C.ar    1  UNL1        0.0013
      9 C         140.3592  142.5621  168.9160 C.ar    1  UNL1        0.0150
     10 C         141.1826  141.5275  168.2079 C.ar    1  UNL1        0.0560
     11 N         141.2634  141.8047  166.7359 N.pl3   1  UNL1       -0.2839
     12 C         140.5299  143.0244  166.2622 C.3     1  UNL1        0.1173
     13 C         141.9806  141.0236  165.6750 C.ar    1  UNL1        0.0698
     14 C         141.8063  141.6482  164.3224 C.ar    1  UNL1        0.0502
     15 C         142.4457  141.0215  163.1189 C.ar    1  UNL1        0.1298
     16 N         143.2593  139.7702  163.2680 N.ar    1  UNL1       -0.2280
     17 C         143.4335  139.1456  164.6206 C.ar    1  UNL1        0.1164
     18 C         142.7942  139.7723  165.8241 C.ar    1  UNL1        0.0872
     19 N         142.2714  141.6462  161.7664 N.pl3   1  UNL1       -0.3197
     20 H         142.6479  141.2076  160.9694 H       1  UNL1        0.1481
     21 C         141.5235  142.9390  161.6280 C.3     1  UNL1        0.0705
     22 C         140.3538  143.0325  160.6937 C.3     1  UNL1        0.0220
     23 C         139.6059  144.3254  160.5554 C.3     1  UNL1        0.0309
     24 C         140.0277  145.5247  161.3514 C.3     1  UNL1        0.1106
     25 O         139.2797  146.8176  161.2130 O.3     1  UNL1       -0.3845
     26 C         141.1974  145.4312  162.2858 C.3     1  UNL1        0.0309
     27 C         141.9453  144.1384  162.4241 C.3     1  UNL1        0.0220
     28 H         138.5583  146.7070  160.5741 H       1  UNL1        0.2103
@<TRIPOS>BOND
     1     1     2    1
     2     2     3   am
     3     3     4    2
     4     3     5    1
     5     5     6   ar
     6     6     7   ar
     7     7     8   ar
     8     8     9   ar
     9     9    10   ar
    10    10    11    1
    11    11    12    1
    12    11    13    1
    13    13    14   ar
    14    14    15   ar
    15    15    19    1
    16    21    19    1
    17    21    22    1
    18    22    23    1
    19    23    24    1
    20    24    25    1
    21    24    26    1
    22    26    27    1
    23    15    16   ar
    24    16    17   ar
    25    17    18   ar
    26    18     2    1
    27    10     5   ar
    28    18    13   ar
    29    27    21    1
    30    19    20    1
    31    25    28    1
