@<TRIPOS>MOLECULE
*****
 35 37 0 0 0
SMALL
GASTEIGER

@<TRIPOS>ATOM
      1 N         141.4068  138.1322  157.7963 N.3     1  UNL1       -0.2705
      2 C         139.9700  138.1367  158.2274 C.3     1  UNL1        0.0739
      3 C         139.6081  138.5385  159.6265 C.3     1  UNL1        0.0394
      4 C         140.6828  138.9357  160.5946 C.3     1  UNL1        0.1017
      5 C         142.1195  138.9312  160.1635 C.3     1  UNL1        0.1490
      6 C         142.4815  138.5295  158.7644 C.3     1  UNL1        0.1037
      7 N         140.3208  139.3375  161.9937 N.am    1  UNL1       -0.2999
      8 C         140.3571  138.3234  163.0984 C.2     1  UNL1        0.2488
      9 O         140.7554  136.9076  162.8039 O.2     1  UNL1       -0.2700
     10 H         140.0594  140.2667  162.1869 H       1  UNL1        0.1498
     11 C         139.9951  138.7252  164.4975 C.ar    1  UNL1        0.0882
     12 C         138.7772  138.1447  165.1531 C.ar    1  UNL1        0.0202
     13 C         138.4152  138.5465  166.5522 C.ar    1  UNL1        0.0709
     14 CL        137.1973  137.9660  167.2078 Cl      1  UNL1       -0.0810
     15 C         139.2710  139.5287  167.2957 C.ar    1  UNL1        0.0553
     16 N         138.9090  139.9305  168.6948 N.pl3   1  UNL1       -0.3563
     17 C         140.4889  140.1091  166.6401 C.ar    1  UNL1        0.0520
     18 C         140.8509  139.7074  165.2410 C.ar    1  UNL1        0.1443
     19 H         138.1096  139.5495  169.1251 H       1  UNL1        0.1424
     20 H         139.4707  140.5751  169.1828 H       1  UNL1        0.1424
     21 O         142.0688  140.2878  164.5854 O.3     1  UNL1       -0.4712
     22 C         143.4266  140.0405  165.1728 C.3     1  UNL1        0.2525
     23 O         143.1942  139.3285  161.1315 O.3     1  UNL1       -0.3505
     24 C         143.9489  138.2756  161.8879 C.3     1  UNL1        0.1741
     25 C         141.7688  137.7305  156.3972 C.3     1  UNL1        0.0738
     26 C         143.7279  132.9885  157.2188 C.2     1  UNL1        0.2256
     27 O         144.5411  133.5223  158.3606 O.2     1  UNL1       -0.2749
     28 N         142.8315  133.9071  156.4425 N.am    1  UNL1       -0.2795
     29 C         142.0184  133.3733  155.3007 C.3     1  UNL1        0.0934
     30 C         141.1220  134.2919  154.5244 C.3     1  UNL1        0.0216
     31 C         141.0387  135.7443  154.8899 C.3     1  UNL1        0.0048
     32 C         141.8519  136.2780  156.0317 C.3     1  UNL1        0.0359
     33 C         142.7483  135.3595  156.8080 C.3     1  UNL1        0.0947
     34 C         144.8883  131.0566  155.9260 C.3     1  UNL1        0.0101
     35 C         143.8111  131.5361  156.8533 C.3     1  UNL1        0.0853
@<TRIPOS>BOND
     1    34    35    1
     2    35    26    1
     3    26    27    2
     4    26    28   am
     5    28    29    1
     6    29    30    1
     7    30    31    1
     8    31    32    1
     9    32    25    1
    10    25     1    1
    11     1     2    1
    12     2     3    1
    13     3     4    1
    14     4     7    1
    15     7     8   am
    16     8     9    2
    17     8    11    1
    18    11    12   ar
    19    12    13   ar
    20    13    14    1
    21    13    15   ar
    22    15    16    1
    23    15    17   ar
    24    17    18   ar
    25    18    21    1
    26    21    22    1
    27     4     5    1
    28     5    23    1
    29    23    24    1
    30     5     6    1
    31    32    33    1
    32    33    28    1
    33     6     1    1
    34    18    11   ar
    35     7    10    1
    36    16    19    1
    37    16    20    1
@<TRIPOS>MOLECULE
*****
 35 37 0 0 0
SMALL
GASTEIGER

@<TRIPOS>ATOM
      1 N         142.2457  138.1369  159.3989 N.3     1  UNL1       -0.2705
      2 C         143.2144  137.7708  160.4840 C.3     1  UNL1        0.0739
      3 C         142.8034  137.8750  161.9229 C.3     1  UNL1        0.0394
      4 C         141.4237  138.3453  162.2766 C.3     1  UNL1        0.1017
      5 C         140.4549  138.7114  161.1915 C.3     1  UNL1        0.1490
      6 C         140.8659  138.6072  159.7526 C.3     1  UNL1        0.1037
      7 N         141.0127  138.4494  163.7154 N.am    1  UNL1       -0.2999
      8 C         141.5060  139.5899  164.5556 C.2     1  UNL1        0.2488
      9 O         142.4102  140.6263  163.9570 O.2     1  UNL1       -0.2700
     10 H         140.4193  137.7692  164.1083 H       1  UNL1        0.1498
     11 C         141.0950  139.6940  165.9945 C.ar    1  UNL1        0.0882
     12 C         142.1384  139.8050  167.0664 C.ar    1  UNL1        0.0202
     13 C         141.7275  139.9091  168.5052 C.ar    1  UNL1        0.0709
     14 CL        142.7709  140.0200  169.5770 Cl      1  UNL1       -0.0810
     15 C         140.2731  139.9022  168.8721 C.ar    1  UNL1        0.0553
     16 N         139.8621  140.0063  170.3110 N.pl3   1  UNL1       -0.3563
     17 C         139.2296  139.7913  167.8002 C.ar    1  UNL1        0.0520
     18 C         139.6406  139.6872  166.3614 C.ar    1  UNL1        0.1443
     19 H         140.5469  140.0792  171.0145 H       1  UNL1        0.1424
     20 H         138.9075  140.0019  170.5518 H       1  UNL1        0.1424
     21 O         138.5971  139.5762  165.2895 O.3     1  UNL1       -0.4712
     22 C         138.1217  140.8067  164.5755 C.3     1  UNL1        0.2525
     23 O         139.0752  139.1816  161.5452 O.3     1  UNL1       -0.3505
     24 C         137.9767  138.1845  161.7667 C.3     1  UNL1        0.1741
     25 C         142.6566  138.0328  157.9601 C.3     1  UNL1        0.0738
     26 C         143.7131  133.0212  157.0840 C.2     1  UNL1        0.2256
     27 O         144.7467  133.0491  158.1706 O.2     1  UNL1       -0.2749
     28 N         142.9322  134.2601  156.7597 N.am    1  UNL1       -0.2795
     29 C         141.8986  134.2322  155.6730 C.3     1  UNL1        0.0934
     30 C         141.1176  135.4711  155.3487 C.3     1  UNL1        0.0216
     31 C         141.3703  136.7380  156.1110 C.3     1  UNL1        0.0048
     32 C         142.4039  136.7659  157.1977 C.3     1  UNL1        0.0359
     33 C         143.1848  135.5270  157.5220 C.3     1  UNL1        0.0947
     34 C         144.5948  131.0537  155.6343 C.3     1  UNL1        0.0101
     35 C         143.4605  131.7543  156.3216 C.3     1  UNL1        0.0853
@<TRIPOS>BOND
     1    34    35    1
     2    35    26    1
     3    26    27    2
     4    26    28   am
     5    28    29    1
     6    29    30    1
     7    30    31    1
     8    31    32    1
     9    32    25    1
    10    25     1    1
    11     1     2    1
    12     2     3    1
    13     3     4    1
    14     4     7    1
    15     7     8   am
    16     8     9    2
    17     8    11    1
    18    11    12   ar
    19    12    13   ar
    20    13    14    1
    21    13    15   ar
    22    15    16    1
    23    15    17   ar
    24    17    18   ar
    25    18    21    1
    26    21    22    1
    27     4     5    1
    28     5    23    1
    29    23    24    1
    30     5     6    1
    31    32    33    1
    32    33    28    1
    33     6     1    1
    34    18    11   ar
    35     7    10    1
    36    16    19    1
    37    16    20    1
@<TRIPOS>MOLECULE
*****
 35 37 0 0 0
SMALL
GASTEIGER

@<TRIPOS>ATOM
      1 N         142.5601  139.4592  160.2027 N.3     1  UNL1       -0.2705
      2 C         142.9295  140.7193  160.9278 C.3     1  UNL1        0.0739
      3 C         142.4898  140.9242  162.3472 C.3     1  UNL1        0.0394
      4 C         141.6806  139.8691  163.0415 C.3     1  UNL1        0.1017
      5 C         141.3111  138.6091  162.3164 C.3     1  UNL1        0.1490
      6 C         141.7508  138.4041  160.8970 C.3     1  UNL1        0.1037
      7 N         141.2409  140.0741  164.4608 N.am    1  UNL1       -0.2999
      8 C         142.0288  139.4695  165.5849 C.2     1  UNL1        0.2488
      9 O         143.2565  138.6598  165.2896 O.2     1  UNL1       -0.2700
     10 H         140.4351  140.6056  164.6546 H       1  UNL1        0.1498
     11 C         141.5891  139.6745  167.0043 C.ar    1  UNL1        0.0882
     12 C         142.6095  139.7644  168.1000 C.ar    1  UNL1        0.0202
     13 C         142.1698  139.9694  169.5194 C.ar    1  UNL1        0.0709
     14 CL        143.1902  140.0593  170.6151 Cl      1  UNL1       -0.0810
     15 C         140.7097  140.0845  169.8430 C.ar    1  UNL1        0.0553
     16 N         140.2699  140.2896  171.2624 N.pl3   1  UNL1       -0.3563
     17 C         139.6892  139.9946  168.7472 C.ar    1  UNL1        0.0520
     18 C         140.1289  139.7896  167.3279 C.ar    1  UNL1        0.1443
     19 H         140.9396  140.3486  171.9816 H       1  UNL1        0.1424
     20 H         139.3115  140.3651  171.4747 H       1  UNL1        0.1424
     21 O         139.1085  139.6997  166.2321 O.3     1  UNL1       -0.4712
     22 C         137.8383  138.9326  166.4513 C.3     1  UNL1        0.2525
     23 O         140.5020  137.5540  163.0106 O.3     1  UNL1       -0.3505
     24 C         139.0082  137.6753  163.0743 C.3     1  UNL1        0.1741
     25 C         142.9998  139.2542  158.7834 C.3     1  UNL1        0.0738
     26 C         142.5123  134.8288  156.1041 C.2     1  UNL1        0.2256
     27 O         143.8619  134.3875  156.5875 O.2     1  UNL1       -0.2749
     28 N         141.9594  136.1558  156.5322 N.am    1  UNL1       -0.2795
     29 C         140.6098  136.5972  156.0488 C.3     1  UNL1        0.0934
     30 C         140.0568  137.9242  156.4769 C.3     1  UNL1        0.0216
     31 C         140.8535  138.8099  157.3884 C.3     1  UNL1        0.0048
     32 C         142.2031  138.3685  157.8718 C.3     1  UNL1        0.0359
     33 C         142.7560  137.0415  157.4437 C.3     1  UNL1        0.0947
     34 C         141.9759  133.9590  153.7155 C.3     1  UNL1        0.0101
     35 C         141.7156  133.9431  155.1926 C.3     1  UNL1        0.0853
@<TRIPOS>BOND
     1    34    35    1
     2    35    26    1
     3    26    27    2
     4    26    28   am
     5    28    29    1
     6    29    30    1
     7    30    31    1
     8    31    32    1
     9    32    25    1
    10    25     1    1
    11     1     2    1
    12     2     3    1
    13     3     4    1
    14     4     7    1
    15     7     8   am
    16     8     9    2
    17     8    11    1
    18    11    12   ar
    19    12    13   ar
    20    13    14    1
    21    13    15   ar
    22    15    16    1
    23    15    17   ar
    24    17    18   ar
    25    18    21    1
    26    21    22    1
    27     4     5    1
    28     5    23    1
    29    23    24    1
    30     5     6    1
    31    32    33    1
    32    33    28    1
    33     6     1    1
    34    18    11   ar
    35     7    10    1
    36    16    19    1
    37    16    20    1
@<TRIPOS>MOLECULE
*****
 35 37 0 0 0
SMALL
GASTEIGER

@<TRIPOS>ATOM
      1 N         139.7590  141.8496  159.6216 N.3     1  UNL1       -0.2705
      2 C         140.6326  140.8513  160.3217 C.3     1  UNL1        0.0739
      3 C         140.4948  140.6409  161.8005 C.3     1  UNL1        0.0394
      4 C         139.4834  141.4288  162.5791 C.3     1  UNL1        0.1017
      5 C         138.6098  142.4271  161.8790 C.3     1  UNL1        0.1490
      6 C         138.7476  142.6375  160.4003 C.3     1  UNL1        0.1037
      7 N         139.3456  141.2183  164.0578 N.am    1  UNL1       -0.2999
      8 C         140.3151  141.8665  165.0012 C.2     1  UNL1        0.2488
      9 O         141.4223  142.7252  164.4658 O.2     1  UNL1       -0.2700
     10 H         138.6189  140.6547  164.4092 H       1  UNL1        0.1498
     11 C         140.1773  141.6561  166.4800 C.ar    1  UNL1        0.0882
     12 C         140.5462  142.7553  167.4316 C.ar    1  UNL1        0.0202
     13 C         140.4084  142.5449  168.9103 C.ar    1  UNL1        0.0709
     14 CL        140.7774  143.6441  169.8619 Cl      1  UNL1       -0.0810
     15 C         139.9017  141.2352  169.4375 C.ar    1  UNL1        0.0553
     16 N         139.7639  141.0247  170.9163 N.pl3   1  UNL1       -0.3563
     17 C         139.5328  140.1360  168.4859 C.ar    1  UNL1        0.0520
     18 C         139.6706  140.3464  167.0071 C.ar    1  UNL1        0.1443
     19 H         140.0060  141.7462  171.5408 H       1  UNL1        0.1424
     20 H         139.4313  140.1651  171.2622 H       1  UNL1        0.1424
     21 O         139.3016  139.2471  166.0555 O.3     1  UNL1       -0.4712
     22 C         138.0979  138.3939  166.3257 C.3     1  UNL1        0.2525
     23 O         137.5984  143.2150  162.6576 O.3     1  UNL1       -0.3505
     24 C         138.0062  144.4810  163.3511 C.3     1  UNL1        0.1741
     25 C         139.8968  142.0601  158.1428 C.3     1  UNL1        0.0738
     26 C         138.9015  146.2824  155.2826 C.2     1  UNL1        0.2256
     27 O         137.5616  145.7174  154.9147 O.2     1  UNL1       -0.2749
     28 N         139.8203  145.5094  156.1816 N.am    1  UNL1       -0.2795
     29 C         141.1602  146.0744  156.5494 C.3     1  UNL1        0.0934
     30 C         142.0790  145.3013  157.4484 C.3     1  UNL1        0.0216
     31 C         141.6578  143.9632  157.9796 C.3     1  UNL1        0.0048
     32 C         140.3179  143.3982  157.6117 C.3     1  UNL1        0.0359
     33 C         139.3991  144.1713  156.7127 C.3     1  UNL1        0.0947
     34 C         138.8631  148.8759  155.4318 C.3     1  UNL1        0.0101
     35 C         139.3226  147.6205  154.7515 C.3     1  UNL1        0.0853
@<TRIPOS>BOND
     1    34    35    1
     2    35    26    1
     3    26    27    2
     4    26    28   am
     5    28    29    1
     6    29    30    1
     7    30    31    1
     8    31    32    1
     9    32    25    1
    10    25     1    1
    11     1     2    1
    12     2     3    1
    13     3     4    1
    14     4     7    1
    15     7     8   am
    16     8     9    2
    17     8    11    1
    18    11    12   ar
    19    12    13   ar
    20    13    14    1
    21    13    15   ar
    22    15    16    1
    23    15    17   ar
    24    17    18   ar
    25    18    21    1
    26    21    22    1
    27     4     5    1
    28     5    23    1
    29    23    24    1
    30     5     6    1
    31    32    33    1
    32    33    28    1
    33     6     1    1
    34    18    11   ar
    35     7    10    1
    36    16    19    1
    37    16    20    1
@<TRIPOS>MOLECULE
*****
 35 37 0 0 0
SMALL
GASTEIGER

@<TRIPOS>ATOM
      1 N         142.3011  138.1102  160.5293 N.3     1  UNL1       -0.2705
      2 C         143.4156  138.1248  161.5331 C.3     1  UNL1        0.0739
      3 C         143.1065  138.2553  162.9952 C.3     1  UNL1        0.0394
      4 C         141.6830  138.3711  163.4534 C.3     1  UNL1        0.1017
      5 C         140.5684  138.3564  162.4496 C.3     1  UNL1        0.1490
      6 C         140.8774  138.2260  160.9876 C.3     1  UNL1        0.1037
      7 N         141.3739  138.5015  164.9153 N.am    1  UNL1       -0.2999
      8 C         141.6163  139.8034  165.6199 C.2     1  UNL1        0.2488
      9 O         142.1676  140.9748  164.8625 O.2     1  UNL1       -0.2700
     10 H         141.0121  137.7327  165.4125 H       1  UNL1        0.1498
     11 C         141.3072  139.9338  167.0820 C.ar    1  UNL1        0.0882
     12 C         142.4223  140.0870  168.0735 C.ar    1  UNL1        0.0202
     13 C         142.1133  140.2174  169.5355 C.ar    1  UNL1        0.0709
     14 CL        143.2284  140.3705  170.5270 Cl      1  UNL1       -0.0810
     15 C         140.6892  140.1947  170.0060 C.ar    1  UNL1        0.0553
     16 N         140.3802  140.3251  171.4680 N.pl3   1  UNL1       -0.3563
     17 C         139.5741  140.0415  169.0144 C.ar    1  UNL1        0.0520
     18 C         139.8831  139.9111  167.5524 C.ar    1  UNL1        0.1443
     19 H         141.1121  140.4256  172.1188 H       1  UNL1        0.1424
     20 H         139.4455  140.3102  171.7768 H       1  UNL1        0.1424
     21 O         138.7680  139.7580  166.5609 O.3     1  UNL1       -0.4712
     22 C         137.8240  138.5972  166.6672 C.3     1  UNL1        0.2525
     23 O         139.1448  138.4722  162.9078 O.3     1  UNL1       -0.3505
     24 C         138.4843  139.8175  162.9708 C.3     1  UNL1        0.1741
     25 C         142.6101  137.9797  159.0673 C.3     1  UNL1        0.0738
     26 C         138.8573  138.3007  155.4877 C.2     1  UNL1        0.2256
     27 O         138.5248  136.8545  155.7066 O.2     1  UNL1       -0.2749
     28 N         139.9618  138.9435  156.2732 N.am    1  UNL1       -0.2795
     29 C         140.2942  140.3897  156.0543 C.3     1  UNL1        0.0934
     30 C         141.3987  141.0326  156.8397 C.3     1  UNL1        0.0216
     31 C         142.1706  140.2293  157.8441 C.3     1  UNL1        0.0048
     32 C         141.8381  138.7831  158.0630 C.3     1  UNL1        0.0359
     33 C         140.7337  138.1402  157.2775 C.3     1  UNL1        0.0947
     34 C         136.6603  138.7508  154.1761 C.3     1  UNL1        0.0101
     35 C         138.0854  139.1040  154.4834 C.3     1  UNL1        0.0853
@<TRIPOS>BOND
     1    34    35    1
     2    35    26    1
     3    26    27    2
     4    26    28   am
     5    28    29    1
     6    29    30    1
     7    30    31    1
     8    31    32    1
     9    32    25    1
    10    25     1    1
    11     1     2    1
    12     2     3    1
    13     3     4    1
    14     4     7    1
    15     7     8   am
    16     8     9    2
    17     8    11    1
    18    11    12   ar
    19    12    13   ar
    20    13    14    1
    21    13    15   ar
    22    15    16    1
    23    15    17   ar
    24    17    18   ar
    25    18    21    1
    26    21    22    1
    27     4     5    1
    28     5    23    1
    29    23    24    1
    30     5     6    1
    31    32    33    1
    32    33    28    1
    33     6     1    1
    34    18    11   ar
    35     7    10    1
    36    16    19    1
    37    16    20    1
@<TRIPOS>MOLECULE
*****
 35 37 0 0 0
SMALL
GASTEIGER

@<TRIPOS>ATOM
      1 N         138.3216  141.2746  157.3750 N.3     1  UNL1       -0.2705
      2 C         138.2134  142.5856  158.0959 C.3     1  UNL1        0.0739
      3 C         138.6890  142.7033  159.5136 C.3     1  UNL1        0.0394
      4 C         139.2728  141.5102  160.2104 C.3     1  UNL1        0.1017
      5 C         139.3809  140.1992  159.4896 C.3     1  UNL1        0.1490
      6 C         138.9053  140.0814  158.0719 C.3     1  UNL1        0.1037
      7 N         139.7484  141.6280  161.6281 N.am    1  UNL1       -0.2999
      8 C         138.7620  141.5747  162.7570 C.2     1  UNL1        0.2488
      9 O         137.3001  141.4037  162.4681 O.2     1  UNL1       -0.2700
     10 H         140.7079  141.7403  161.8177 H       1  UNL1        0.1498
     11 C         139.2377  141.6925  164.1747 C.ar    1  UNL1        0.0882
     12 C         138.9712  140.5842  165.1497 C.ar    1  UNL1        0.0202
     13 C         139.4469  140.7020  166.5674 C.ar    1  UNL1        0.0709
     14 CL        139.1804  139.5936  167.5424 Cl      1  UNL1       -0.0810
     15 C         140.1889  141.9281  167.0101 C.ar    1  UNL1        0.0553
     16 N         140.6645  142.0459  168.4279 N.pl3   1  UNL1       -0.3563
     17 C         140.4553  143.0364  166.0351 C.ar    1  UNL1        0.0520
     18 C         139.9797  142.9186  164.6174 C.ar    1  UNL1        0.1443
     19 H         140.4897  141.3185  169.0678 H       1  UNL1        0.1424
     20 H         141.1516  142.8506  168.7184 H       1  UNL1        0.1424
     21 O         140.2461  144.0270  163.6424 O.3     1  UNL1       -0.4712
     22 C         139.1877  145.0533  163.3660 C.3     1  UNL1        0.2525
     23 O         139.9646  139.0061  160.1864 O.3     1  UNL1       -0.3505
     24 C         139.1096  138.1780  161.0991 C.3     1  UNL1        0.1741
     25 C         137.8460  141.1568  155.9573 C.3     1  UNL1        0.0738
     26 C         133.0847  139.5882  157.3248 C.2     1  UNL1        0.2256
     27 O         133.6391  139.0116  158.5937 O.2     1  UNL1       -0.2749
     28 N         133.9978  140.2686  156.3485 N.am    1  UNL1       -0.2795
     29 C         133.4435  140.8452  155.0795 C.3     1  UNL1        0.0934
     30 C         134.3565  141.5256  154.1032 C.3     1  UNL1        0.0216
     31 C         135.8240  141.6295  154.3958 C.3     1  UNL1        0.0048
     32 C         136.3784  141.0529  155.6647 C.3     1  UNL1        0.0359
     33 C         135.4653  140.3725  156.6410 C.3     1  UNL1        0.0947
     34 C         130.7354  138.6450  157.9085 C.3     1  UNL1        0.0101
     35 C         131.6173  139.4843  157.0323 C.3     1  UNL1        0.0853
@<TRIPOS>BOND
     1    34    35    1
     2    35    26    1
     3    26    27    2
     4    26    28   am
     5    28    29    1
     6    29    30    1
     7    30    31    1
     8    31    32    1
     9    32    25    1
    10    25     1    1
    11     1     2    1
    12     2     3    1
    13     3     4    1
    14     4     7    1
    15     7     8   am
    16     8     9    2
    17     8    11    1
    18    11    12   ar
    19    12    13   ar
    20    13    14    1
    21    13    15   ar
    22    15    16    1
    23    15    17   ar
    24    17    18   ar
    25    18    21    1
    26    21    22    1
    27     4     5    1
    28     5    23    1
    29    23    24    1
    30     5     6    1
    31    32    33    1
    32    33    28    1
    33     6     1    1
    34    18    11   ar
    35     7    10    1
    36    16    19    1
    37    16    20    1
@<TRIPOS>MOLECULE
*****
 35 37 0 0 0
SMALL
GASTEIGER

@<TRIPOS>ATOM
      1 N         143.2372  141.6005  159.7793 N.3     1  UNL1       -0.2705
      2 C         143.7590  140.3796  160.4773 C.3     1  UNL1        0.0739
      3 C         143.4093  139.0146  159.9629 C.3     1  UNL1        0.0394
      4 C         142.5379  138.8705  158.7505 C.3     1  UNL1        0.1017
      5 C         142.0161  140.0914  158.0526 C.3     1  UNL1        0.1490
      6 C         142.3657  141.4564  158.5669 C.3     1  UNL1        0.1037
      7 N         142.1882  137.5056  158.2362 N.am    1  UNL1       -0.2999
      8 C         142.9490  136.9210  157.0831 C.2     1  UNL1        0.2488
      9 O         144.0593  137.7014  156.4444 O.2     1  UNL1       -0.2700
     10 H         141.4595  136.9934  158.6554 H       1  UNL1        0.1498
     11 C         142.5993  135.5560  156.5688 C.ar    1  UNL1        0.0882
     12 C         143.3035  134.3474  157.1104 C.ar    1  UNL1        0.0202
     13 C         142.9538  132.9824  156.5961 C.ar    1  UNL1        0.0709
     14 CL        143.6580  131.7738  157.1377 Cl      1  UNL1       -0.0810
     15 C         141.9000  132.8260  155.5402 C.ar    1  UNL1        0.0553
     16 N         141.5504  131.4610  155.0258 N.pl3   1  UNL1       -0.3563
     17 C         141.1959  134.0347  154.9985 C.ar    1  UNL1        0.0520
     18 C         141.5455  135.3997  155.5128 C.ar    1  UNL1        0.1443
     19 H         142.0125  130.6677  155.3813 H       1  UNL1        0.1424
     20 H         140.8587  131.3584  154.3328 H       1  UNL1        0.1424
     21 O         140.8413  136.6083  154.9712 O.3     1  UNL1       -0.4712
     22 C         139.4194  136.8851  155.3603 C.3     1  UNL1        0.2525
     23 O         141.1447  139.9474  156.8402 O.3     1  UNL1       -0.3505
     24 C         141.7339  140.1055  155.4699 C.3     1  UNL1        0.1741
     25 C         143.5868  142.9655  160.2937 C.3     1  UNL1        0.0738
     26 C         138.9156  143.9860  162.3280 C.2     1  UNL1        0.2256
     27 O         138.2637  143.2191  161.2159 O.2     1  UNL1       -0.2749
     28 N         140.4093  144.1144  162.3754 N.am    1  UNL1       -0.2795
     29 C         141.0612  144.8814  163.4875 C.3     1  UNL1        0.0934
     30 C         142.5549  145.0097  163.5350 C.3     1  UNL1        0.0216
     31 C         143.3968  144.3711  162.4704 C.3     1  UNL1        0.0048
     32 C         142.7449  143.6041  161.3583 C.3     1  UNL1        0.0359
     33 C         141.2512  143.4758  161.3109 C.3     1  UNL1        0.0947
     34 C         137.8858  143.9378  164.7127 C.3     1  UNL1        0.0101
     35 C         138.0737  144.6246  163.3925 C.3     1  UNL1        0.0853
@<TRIPOS>BOND
     1    34    35    1
     2    35    26    1
     3    26    27    2
     4    26    28   am
     5    28    29    1
     6    29    30    1
     7    30    31    1
     8    31    32    1
     9    32    25    1
    10    25     1    1
    11     1     2    1
    12     2     3    1
    13     3     4    1
    14     4     7    1
    15     7     8   am
    16     8     9    2
    17     8    11    1
    18    11    12   ar
    19    12    13   ar
    20    13    14    1
    21    13    15   ar
    22    15    16    1
    23    15    17   ar
    24    17    18   ar
    25    18    21    1
    26    21    22    1
    27     4     5    1
    28     5    23    1
    29    23    24    1
    30     5     6    1
    31    32    33    1
    32    33    28    1
    33     6     1    1
    34    18    11   ar
    35     7    10    1
    36    16    19    1
    37    16    20    1
@<TRIPOS>MOLECULE
*****
 35 37 0 0 0
SMALL
GASTEIGER

@<TRIPOS>ATOM
      1 N         142.5654  138.9861  160.4385 N.3     1  UNL1       -0.2705
      2 C         143.5457  138.5119  161.4700 C.3     1  UNL1        0.0739
      3 C         143.1581  138.4902  162.9190 C.3     1  UNL1        0.0394
      4 C         141.7903  138.9427  163.3363 C.3     1  UNL1        0.1017
      5 C         140.8099  139.4169  162.3048 C.3     1  UNL1        0.1490
      6 C         141.1975  139.4386  160.8559 C.3     1  UNL1        0.1037
      7 N         141.4028  138.9211  164.7852 N.am    1  UNL1       -0.2999
      8 C         141.8113  140.0473  165.6878 C.2     1  UNL1        0.2488
      9 O         142.6074  141.1952  165.1415 O.2     1  UNL1       -0.2700
     10 H         140.8803  138.1676  165.1438 H       1  UNL1        0.1498
     11 C         141.4237  140.0256  167.1367 C.ar    1  UNL1        0.0882
     12 C         142.4827  139.9321  168.1950 C.ar    1  UNL1        0.0202
     13 C         142.0952  139.9104  169.6439 C.ar    1  UNL1        0.0709
     14 CL        143.1541  139.8169  170.7021 Cl      1  UNL1       -0.0810
     15 C         140.6488  139.9821  170.0345 C.ar    1  UNL1        0.0553
     16 N         140.2612  139.9604  171.4835 N.pl3   1  UNL1       -0.3563
     17 C         139.5898  140.0756  168.9763 C.ar    1  UNL1        0.0520
     18 C         139.9773  140.0973  167.5274 C.ar    1  UNL1        0.1443
     19 H         140.9562  139.8991  172.1781 H       1  UNL1        0.1424
     20 H         139.3118  140.0075  171.7399 H       1  UNL1        0.1424
     21 O         138.9184  140.1908  166.4691 O.3     1  UNL1       -0.4712
     22 C         138.0506  139.0046  166.1696 C.3     1  UNL1        0.2525
     23 O         139.4421  139.8695  162.7221 O.3     1  UNL1       -0.3505
     24 C         139.0791  141.3232  162.6517 C.3     1  UNL1        0.1741
     25 C         142.9529  139.0078  158.9896 C.3     1  UNL1        0.0738
     26 C         145.7689  141.1041  155.1587 C.2     1  UNL1        0.2256
     27 O         145.5562  139.8729  154.3287 O.2     1  UNL1       -0.2749
     28 N         145.1713  141.1956  156.5315 N.am    1  UNL1       -0.2795
     29 C         145.3840  142.4267  157.3615 C.3     1  UNL1        0.0934
     30 C         144.7863  142.5182  158.7343 C.3     1  UNL1        0.0216
     31 C         143.9760  141.3786  159.2770 C.3     1  UNL1        0.0048
     32 C         143.7633  140.1475  158.4469 C.3     1  UNL1        0.0359
     33 C         144.3609  140.0560  157.0742 C.3     1  UNL1        0.0947
     34 C         148.0734  142.2310  154.7475 C.3     1  UNL1        0.0101
     35 C         146.5793  142.2437  154.6160 C.3     1  UNL1        0.0853
@<TRIPOS>BOND
     1    34    35    1
     2    35    26    1
     3    26    27    2
     4    26    28   am
     5    28    29    1
     6    29    30    1
     7    30    31    1
     8    31    32    1
     9    32    25    1
    10    25     1    1
    11     1     2    1
    12     2     3    1
    13     3     4    1
    14     4     7    1
    15     7     8   am
    16     8     9    2
    17     8    11    1
    18    11    12   ar
    19    12    13   ar
    20    13    14    1
    21    13    15   ar
    22    15    16    1
    23    15    17   ar
    24    17    18   ar
    25    18    21    1
    26    21    22    1
    27     4     5    1
    28     5    23    1
    29    23    24    1
    30     5     6    1
    31    32    33    1
    32    33    28    1
    33     6     1    1
    34    18    11   ar
    35     7    10    1
    36    16    19    1
    37    16    20    1
@<TRIPOS>MOLECULE
*****
 35 37 0 0 0
SMALL
GASTEIGER

@<TRIPOS>ATOM
      1 N         138.6268  140.3667  160.8543 N.3     1  UNL1       -0.2705
      2 C         137.7115  140.9262  161.9028 C.3     1  UNL1        0.0739
      3 C         138.1849  141.0547  163.3204 C.3     1  UNL1        0.0394
      4 C         139.5735  140.6239  163.6894 C.3     1  UNL1        0.1017
      5 C         140.4887  140.0644  162.6409 C.3     1  UNL1        0.1490
      6 C         140.0154  139.9358  161.2234 C.3     1  UNL1        0.1037
      7 N         140.0468  140.7524  165.1069 N.am    1  UNL1       -0.2999
      8 C         140.6025  142.0568  165.5967 C.2     1  UNL1        0.2488
      9 O         140.6849  143.2325  164.6690 O.2     1  UNL1       -0.2700
     10 H         139.9927  139.9807  165.7159 H       1  UNL1        0.1498
     11 C         141.0758  142.1853  167.0143 C.ar    1  UNL1        0.0882
     12 C         140.3600  143.0994  167.9641 C.ar    1  UNL1        0.0202
     13 C         140.8332  143.2279  169.3816 C.ar    1  UNL1        0.0709
     14 CL        140.1173  144.1420  170.3313 Cl      1  UNL1       -0.0810
     15 C         142.0224  142.4424  169.8494 C.ar    1  UNL1        0.0553
     16 N         142.4957  142.5710  171.2670 N.pl3   1  UNL1       -0.3563
     17 C         142.7382  141.5284  168.8996 C.ar    1  UNL1        0.0520
     18 C         142.2650  141.3998  167.4821 C.ar    1  UNL1        0.1443
     19 H         142.0259  143.1709  171.8903 H       1  UNL1        0.1424
     20 H         143.2762  142.0554  171.5740 H       1  UNL1        0.1424
     21 O         142.9809  140.4858  166.5324 O.3     1  UNL1       -0.4712
     22 C         142.8503  138.9988  166.6805 C.3     1  UNL1        0.2525
     23 O         141.8772  139.6335  163.0099 O.3     1  UNL1       -0.3505
     24 C         142.2498  138.1813  162.9613 C.3     1  UNL1        0.1741
     25 C         138.1534  140.2382  159.4368 C.3     1  UNL1        0.0738
     26 C         139.9739  144.9383  158.1739 C.2     1  UNL1        0.2256
     27 O         139.9468  145.3372  159.6195 O.2     1  UNL1       -0.2749
     28 N         139.5323  143.5637  157.7667 N.am    1  UNL1       -0.2795
     29 C         139.5595  143.1648  156.3211 C.3     1  UNL1        0.0934
     30 C         139.1179  141.7902  155.9139 C.3     1  UNL1        0.0216
     31 C         138.6492  140.8147  156.9525 C.3     1  UNL1        0.0048
     32 C         138.6221  141.2137  158.3982 C.3     1  UNL1        0.0359
     33 C         139.0637  142.5882  158.8053 C.3     1  UNL1        0.0947
     34 C         139.4627  146.8441  156.4837 C.3     1  UNL1        0.0101
     35 C         140.4425  145.9138  157.1353 C.3     1  UNL1        0.0853
@<TRIPOS>BOND
     1    34    35    1
     2    35    26    1
     3    26    27    2
     4    26    28   am
     5    28    29    1
     6    29    30    1
     7    30    31    1
     8    31    32    1
     9    32    25    1
    10    25     1    1
    11     1     2    1
    12     2     3    1
    13     3     4    1
    14     4     7    1
    15     7     8   am
    16     8     9    2
    17     8    11    1
    18    11    12   ar
    19    12    13   ar
    20    13    14    1
    21    13    15   ar
    22    15    16    1
    23    15    17   ar
    24    17    18   ar
    25    18    21    1
    26    21    22    1
    27     4     5    1
    28     5    23    1
    29    23    24    1
    30     5     6    1
    31    32    33    1
    32    33    28    1
    33     6     1    1
    34    18    11   ar
    35     7    10    1
    36    16    19    1
    37    16    20    1
