@<TRIPOS>MOLECULE
*****
 33 35 0 0 0
SMALL
GASTEIGER

@<TRIPOS>ATOM
      1 N         140.6086  142.8512  167.6385 N.am    1  UNL1       -0.2753
      2 C         141.3048  142.4557  166.3701 C.2     1  UNL1        0.2499
      3 O         142.2798  141.3159  166.3737 O.2     1  UNL1       -0.2698
      4 H         139.9686  143.5993  167.6362 H       1  UNL1        0.1556
      5 C         141.0258  143.2002  165.0980 C.ar    1  UNL1        0.0559
      6 C         142.0837  144.0751  164.4937 C.ar    1  UNL1        0.0048
      7 C         141.8048  144.8195  163.2217 C.ar    1  UNL1        0.0069
      8 C         140.4680  144.6889  162.5540 C.ar    1  UNL1        0.0810
      9 C         139.4101  143.8139  163.1583 C.ar    1  UNL1        0.1446
     10 F         138.0732  143.6833  162.4906 F       1  UNL1       -0.2040
     11 C         139.6890  143.0696  164.4303 C.ar    1  UNL1        0.0343
     12 C         140.1891  145.4333  161.2819 C.2     1  UNL1        0.2512
     13 O         139.1743  146.5379  161.2664 O.2     1  UNL1       -0.2698
     14 N         140.9249  145.0732  160.0254 N.am    1  UNL1       -0.2760
     15 C         141.9396  143.9686  160.0409 C.3     1  UNL1        0.0937
     16 C         142.6755  143.6085  158.7844 C.3     1  UNL1        0.0216
     17 C         142.3966  144.3529  157.5124 C.3     1  UNL1        0.0035
     18 C         141.3818  145.4574  157.4969 C.3     1  UNL1        0.0216
     19 C         140.6460  145.8176  158.7533 C.3     1  UNL1        0.0937
     20 C         140.2826  140.7952  169.3155 C.ar    1  UNL1        0.0740
     21 C         140.8415  140.4211  170.6562 C.ar    1  UNL1        0.0133
     22 C         141.7919  141.5015  171.0800 C.ar    1  UNL1        0.0368
     23 S         141.8204  142.5433  170.0011 S.2     1  UNL1       -0.0715
     24 C         140.8875  142.1067  168.9106 C.ar    1  UNL1        0.0853
     25 C         138.5333  138.9639  166.2599 C.2     1  UNL1        0.4076
     26 O         137.3124  138.4030  166.9267 O.2     1  UNL1       -0.2260
     27 N         139.5234  139.7612  167.0561 N.am    1  UNL1       -0.2174
     28 C         139.2925  139.9978  168.5193 C.2     1  UNL1        0.2557
     29 O         138.0716  139.4370  169.1862 O.2     1  UNL1       -0.2696
     30 H         140.3247  140.1294  166.6184 H       1  UNL1        0.1612
     31 O         138.7643  138.7273  164.7967 O.3     1  UNL1       -0.4344
     32 C         138.0231  139.3365  162.3823 C.3     1  UNL1        0.0513
     33 C         138.3221  139.7503  163.7928 C.3     1  UNL1        0.2102
@<TRIPOS>BOND
     1    32    33    1
     2    33    31    1
     3    31    25    1
     4    25    26    2
     5    25    27   am
     6    27    28   am
     7    28    29    2
     8    28    20    1
     9    20    21   ar
    10    21    22   ar
    11    22    23   ar
    12    23    24   ar
    13    24     1    1
    14     1     2   am
    15     2     3    2
    16     2     5    1
    17     5     6   ar
    18     6     7   ar
    19     7     8   ar
    20     8    12    1
    21    12    13    2
    22    12    14   am
    23    14    15    1
    24    15    16    1
    25    16    17    1
    26    17    18    1
    27    18    19    1
    28     8     9   ar
    29     9    10    1
    30     9    11   ar
    31    24    20   ar
    32    11     5   ar
    33    19    14    1
    34    27    30    1
    35     1     4    1
@<TRIPOS>MOLECULE
*****
 33 35 0 0 0
SMALL
GASTEIGER

@<TRIPOS>ATOM
      1 N         140.8202  140.8200  167.5993 N.am    1  UNL1       -0.2753
      2 C         139.6674  140.0189  167.0709 C.2     1  UNL1        0.2499
      3 O         138.6785  139.4110  168.0209 O.2     1  UNL1       -0.2698
      4 H         141.4693  141.2189  166.9757 H       1  UNL1        0.1556
      5 C         139.5035  139.8256  165.5924 C.ar    1  UNL1        0.0559
      6 C         139.8127  140.9509  164.6500 C.ar    1  UNL1        0.0048
      7 C         139.6488  140.7575  163.1716 C.ar    1  UNL1        0.0069
      8 C         139.1757  139.4389  162.6356 C.ar    1  UNL1        0.0810
      9 C         138.8665  138.3136  163.5779 C.ar    1  UNL1        0.1446
     10 F         138.3933  136.9949  163.0419 F       1  UNL1       -0.2040
     11 C         139.0304  138.5069  165.0563 C.ar    1  UNL1        0.0343
     12 C         139.0118  139.2456  161.1571 C.2     1  UNL1        0.2512
     13 O         137.6848  139.5082  160.5090 O.2     1  UNL1       -0.2698
     14 N         140.1748  138.7896  160.3268 N.am    1  UNL1       -0.2760
     15 C         141.5018  138.5269  160.9750 C.3     1  UNL1        0.0937
     16 C         142.6649  138.0709  160.1446 C.3     1  UNL1        0.0216
     17 C         142.5009  137.8777  158.6662 C.3     1  UNL1        0.0035
     18 C         141.1739  138.1403  158.0181 C.3     1  UNL1        0.0216
     19 C         140.0109  138.5963  158.8484 C.3     1  UNL1        0.0937
     20 C         141.8653  140.2019  169.9807 C.ar    1  UNL1        0.0740
     21 C         141.7214  140.7391  171.3738 C.ar    1  UNL1        0.0133
     22 C         140.7513  141.8825  171.3318 C.ar    1  UNL1        0.0368
     23 S         140.2956  142.0519  169.9127 S.2     1  UNL1       -0.0715
     24 C         140.9841  141.0133  169.0777 C.ar    1  UNL1        0.0853
     25 C         144.0351  136.8837  170.1567 C.2     1  UNL1        0.4076
     26 O         144.4811  136.7606  168.7298 O.2     1  UNL1       -0.2260
     27 N         143.1632  138.0308  170.5736 N.am    1  UNL1       -0.2174
     28 C         142.7372  139.0549  169.5637 C.2     1  UNL1        0.2557
     29 O         143.1832  138.9318  168.1368 O.2     1  UNL1       -0.2696
     30 H         142.8705  138.1116  171.5101 H       1  UNL1        0.1612
     31 O         144.4611  135.8597  171.1666 O.3     1  UNL1       -0.4344
     32 C         146.9075  136.4934  171.7693 C.3     1  UNL1        0.0513
     33 C         145.4979  136.2056  172.1939 C.3     1  UNL1        0.2102
@<TRIPOS>BOND
     1    32    33    1
     2    33    31    1
     3    31    25    1
     4    25    26    2
     5    25    27   am
     6    27    28   am
     7    28    29    2
     8    28    20    1
     9    20    21   ar
    10    21    22   ar
    11    22    23   ar
    12    23    24   ar
    13    24     1    1
    14     1     2   am
    15     2     3    2
    16     2     5    1
    17     5     6   ar
    18     6     7   ar
    19     7     8   ar
    20     8    12    1
    21    12    13    2
    22    12    14   am
    23    14    15    1
    24    15    16    1
    25    16    17    1
    26    17    18    1
    27    18    19    1
    28     8     9   ar
    29     9    10    1
    30     9    11   ar
    31    24    20   ar
    32    11     5   ar
    33    19    14    1
    34    27    30    1
    35     1     4    1
@<TRIPOS>MOLECULE
*****
 33 35 0 0 0
SMALL
GASTEIGER

@<TRIPOS>ATOM
      1 N         140.8084  142.2064  167.3406 N.am    1  UNL1       -0.2753
      2 C         139.9491  141.8577  166.1617 C.2     1  UNL1        0.2499
      3 O         139.0681  140.6446  166.2085 O.2     1  UNL1       -0.2698
      4 H         141.3866  143.0027  167.3099 H       1  UNL1        0.1556
      5 C         139.9707  142.7221  164.9359 C.ar    1  UNL1        0.0559
      6 C         138.9883  142.4784  163.8290 C.ar    1  UNL1        0.0048
      7 C         139.0100  143.3428  162.6033 C.ar    1  UNL1        0.0069
      8 C         140.0141  144.4508  162.4846 C.ar    1  UNL1        0.0810
      9 C         140.9965  144.6944  163.5915 C.ar    1  UNL1        0.1446
     10 F         142.0006  145.8024  163.4728 F       1  UNL1       -0.2040
     11 C         140.9748  143.8301  164.8172 C.ar    1  UNL1        0.0343
     12 C         140.0357  145.3151  161.2588 C.2     1  UNL1        0.2512
     13 O         139.1741  146.5410  161.1902 O.2     1  UNL1       -0.2698
     14 N         140.9190  144.9536  160.1016 N.am    1  UNL1       -0.2760
     15 C         141.7807  143.7277  160.1701 C.3     1  UNL1        0.0937
     16 C         142.6640  143.3662  159.0129 C.3     1  UNL1        0.0216
     17 C         142.6856  144.2305  157.7872 C.3     1  UNL1        0.0035
     18 C         141.8239  145.4564  157.7187 C.3     1  UNL1        0.0216
     19 C         140.9407  145.8180  158.8758 C.3     1  UNL1        0.0937
     20 C         141.5965  140.0980  168.7824 C.ar    1  UNL1        0.0740
     21 C         141.2617  139.5571  170.1409 C.ar    1  UNL1        0.0133
     22 C         140.2451  140.4669  170.7645 C.ar    1  UNL1        0.0368
     23 S         139.9515  141.5701  169.7913 S.2     1  UNL1       -0.0715
     24 C         140.7868  141.3421  168.5664 C.ar    1  UNL1        0.0853
     25 C         143.6627  139.4654  165.4537 C.2     1  UNL1        0.4076
     26 O         144.5171  138.3039  165.8668 O.2     1  UNL1       -0.2260
     27 N         142.6891  140.0634  166.4256 N.am    1  UNL1       -0.2174
     28 C         142.5700  139.5000  167.8106 C.2     1  UNL1        0.2557
     29 O         143.4245  138.3384  168.2238 O.2     1  UNL1       -0.2696
     30 H         142.1283  140.8258  166.1544 H       1  UNL1        0.1612
     31 O         143.7817  140.0289  164.0686 O.3     1  UNL1       -0.4344
     32 C         145.7892  141.6261  163.6581 C.3     1  UNL1        0.0513
     33 C         144.3188  141.4147  163.8665 C.3     1  UNL1        0.2102
@<TRIPOS>BOND
     1    32    33    1
     2    33    31    1
     3    31    25    1
     4    25    26    2
     5    25    27   am
     6    27    28   am
     7    28    29    2
     8    28    20    1
     9    20    21   ar
    10    21    22   ar
    11    22    23   ar
    12    23    24   ar
    13    24     1    1
    14     1     2   am
    15     2     3    2
    16     2     5    1
    17     5     6   ar
    18     6     7   ar
    19     7     8   ar
    20     8    12    1
    21    12    13    2
    22    12    14   am
    23    14    15    1
    24    15    16    1
    25    16    17    1
    26    17    18    1
    27    18    19    1
    28     8     9   ar
    29     9    10    1
    30     9    11   ar
    31    24    20   ar
    32    11     5   ar
    33    19    14    1
    34    27    30    1
    35     1     4    1
@<TRIPOS>MOLECULE
*****
 33 35 0 0 0
SMALL
GASTEIGER

@<TRIPOS>ATOM
      1 N         141.9146  141.8121  166.5059 N.am    1  UNL1       -0.2753
      2 C         140.9149  142.8242  166.0303 C.2     1  UNL1        0.2499
      3 O         139.9579  143.4475  167.0027 O.2     1  UNL1       -0.2698
      4 H         142.5427  141.4030  165.8676 H       1  UNL1        0.1556
      5 C         140.8721  143.2130  164.5821 C.ar    1  UNL1        0.0559
      6 C         141.6534  142.4272  163.5712 C.ar    1  UNL1        0.0048
      7 C         141.6106  142.8160  162.1231 C.ar    1  UNL1        0.0069
      8 C         140.7865  143.9906  161.6860 C.ar    1  UNL1        0.0810
      9 C         140.0051  144.7764  162.6969 C.ar    1  UNL1        0.1446
     10 F         139.1810  145.9510  162.2598 F       1  UNL1       -0.2040
     11 C         140.0479  144.3876  164.1450 C.ar    1  UNL1        0.0343
     12 C         140.7437  144.3795  160.2378 C.2     1  UNL1        0.2512
     13 O         141.5996  145.5053  159.7380 O.2     1  UNL1       -0.2698
     14 N         139.8450  143.6424  159.2896 N.am    1  UNL1       -0.2760
     15 C         138.9891  142.5165  159.7895 C.3     1  UNL1        0.0937
     16 C         138.0905  141.7795  158.8412 C.3     1  UNL1        0.0216
     17 C         138.0477  142.1683  157.3931 C.3     1  UNL1        0.0035
     18 C         138.9036  143.2942  156.8933 C.3     1  UNL1        0.0216
     19 C         139.8023  144.0312  157.8415 C.3     1  UNL1        0.0937
     20 C         140.9684  140.5442  168.6605 C.ar    1  UNL1        0.0740
     21 C         141.3965  140.4229  170.0930 C.ar    1  UNL1        0.0133
     22 C         142.6501  141.2271  170.2719 C.ar    1  UNL1        0.0368
     23 S         142.9967  141.8454  168.9498 S.2     1  UNL1       -0.0715
     24 C         141.9574  141.4233  167.9540 C.ar    1  UNL1        0.0853
     25 C         138.5401  138.9498  165.9566 C.2     1  UNL1        0.4076
     26 O         137.3524  138.6102  166.8074 O.2     1  UNL1       -0.2260
     27 N         139.7454  139.5945  166.5743 N.am    1  UNL1       -0.2174
     28 C         139.7631  139.8995  168.0429 C.2     1  UNL1        0.2557
     29 O         138.5754  139.5599  168.8937 O.2     1  UNL1       -0.2696
     30 H         140.5249  139.8174  166.0158 H       1  UNL1        0.1612
     31 O         138.5225  138.6449  164.4880 O.3     1  UNL1       -0.4344
     32 C         137.9362  141.0521  163.7064 C.3     1  UNL1        0.0513
     33 C         138.6593  139.7559  163.4897 C.3     1  UNL1        0.2102
@<TRIPOS>BOND
     1    32    33    1
     2    33    31    1
     3    31    25    1
     4    25    26    2
     5    25    27   am
     6    27    28   am
     7    28    29    2
     8    28    20    1
     9    20    21   ar
    10    21    22   ar
    11    22    23   ar
    12    23    24   ar
    13    24     1    1
    14     1     2   am
    15     2     3    2
    16     2     5    1
    17     5     6   ar
    18     6     7   ar
    19     7     8   ar
    20     8    12    1
    21    12    13    2
    22    12    14   am
    23    14    15    1
    24    15    16    1
    25    16    17    1
    26    17    18    1
    27    18    19    1
    28     8     9   ar
    29     9    10    1
    30     9    11   ar
    31    24    20   ar
    32    11     5   ar
    33    19    14    1
    34    27    30    1
    35     1     4    1
@<TRIPOS>MOLECULE
*****
 33 35 0 0 0
SMALL
GASTEIGER

@<TRIPOS>ATOM
      1 N         142.6011  142.2173  161.0857 N.am    1  UNL1       -0.2753
      2 C         143.3621  142.7836  162.2476 C.2     1  UNL1        0.2499
      3 O         144.3358  143.9041  162.0320 O.2     1  UNL1       -0.2698
      4 H         141.9620  141.4819  161.2272 H       1  UNL1        0.1556
      5 C         143.1495  142.2295  163.6252 C.ar    1  UNL1        0.0559
      6 C         143.7969  142.8886  164.8069 C.ar    1  UNL1        0.0048
      7 C         143.5843  142.3344  166.1845 C.ar    1  UNL1        0.0069
      8 C         142.7242  141.1212  166.3803 C.ar    1  UNL1        0.0810
      9 C         142.0767  140.4622  165.1986 C.ar    1  UNL1        0.1446
     10 F         141.2166  139.2489  165.3945 F       1  UNL1       -0.2040
     11 C         142.2894  141.0163  163.8211 C.ar    1  UNL1        0.0343
     12 C         142.5115  140.5671  167.7579 C.2     1  UNL1        0.2512
     13 O         143.1048  139.2414  168.1329 O.2     1  UNL1       -0.2698
     14 N         141.7056  141.3386  168.7605 N.am    1  UNL1       -0.2760
     15 C         141.1122  142.6642  168.3855 C.3     1  UNL1        0.0937
     16 C         140.3063  143.4358  169.3882 C.3     1  UNL1        0.0216
     17 C         140.0937  142.8816  170.7657 C.3     1  UNL1        0.0035
     18 C         140.6870  141.5560  171.1407 C.3     1  UNL1        0.0216
     19 C         141.4929  140.7845  170.1381 C.3     1  UNL1        0.0937
     20 C         142.1236  143.9677  159.1227 C.ar    1  UNL1        0.0740
     21 C         142.6372  144.1622  157.7268 C.ar    1  UNL1        0.0133
     22 C         143.6448  143.0861  157.4495 C.ar    1  UNL1        0.0368
     23 S         143.7539  142.2265  158.6741 S.2     1  UNL1       -0.0715
     24 C         142.8138  142.7715  159.7081 C.ar    1  UNL1        0.0853
     25 C         139.7544  145.4360  161.9478 C.2     1  UNL1        0.4076
     26 O         139.0517  146.5240  161.1912 O.2     1  UNL1       -0.2260
     27 N         140.7784  144.5839  161.2582 N.am    1  UNL1       -0.2174
     28 C         141.0997  144.8198  159.8121 C.2     1  UNL1        0.2557
     29 O         140.3969  145.9078  159.0555 O.2     1  UNL1       -0.2696
     30 H         141.2396  143.8699  161.7548 H       1  UNL1        0.1612
     31 O         139.4332  145.2001  163.3938 O.3     1  UNL1       -0.4344
     32 C         139.5737  143.7033  165.5127 C.3     1  UNL1        0.0513
     33 C         139.8282  143.9099  164.0489 C.3     1  UNL1        0.2102
@<TRIPOS>BOND
     1    32    33    1
     2    33    31    1
     3    31    25    1
     4    25    26    2
     5    25    27   am
     6    27    28   am
     7    28    29    2
     8    28    20    1
     9    20    21   ar
    10    21    22   ar
    11    22    23   ar
    12    23    24   ar
    13    24     1    1
    14     1     2   am
    15     2     3    2
    16     2     5    1
    17     5     6   ar
    18     6     7   ar
    19     7     8   ar
    20     8    12    1
    21    12    13    2
    22    12    14   am
    23    14    15    1
    24    15    16    1
    25    16    17    1
    26    17    18    1
    27    18    19    1
    28     8     9   ar
    29     9    10    1
    30     9    11   ar
    31    24    20   ar
    32    11     5   ar
    33    19    14    1
    34    27    30    1
    35     1     4    1
@<TRIPOS>MOLECULE
*****
 33 35 0 0 0
SMALL
GASTEIGER

@<TRIPOS>ATOM
      1 N         141.7799  141.3017  167.3720 N.am    1  UNL1       -0.2753
      2 C         142.4676  140.0395  166.9433 C.2     1  UNL1        0.2499
      3 O         142.9951  139.0856  167.9738 O.2     1  UNL1       -0.2698
      4 H         141.4337  141.9277  166.6956 H       1  UNL1        0.1556
      5 C         142.6279  139.7311  165.4841 C.ar    1  UNL1        0.0559
      6 C         142.3158  138.3573  164.9691 C.ar    1  UNL1        0.0048
      7 C         142.4761  138.0490  163.5100 C.ar    1  UNL1        0.0069
      8 C         142.9485  139.1144  162.5657 C.ar    1  UNL1        0.0810
      9 C         143.2606  140.4882  163.0807 C.ar    1  UNL1        0.1446
     10 F         143.7331  141.5537  162.1364 F       1  UNL1       -0.2040
     11 C         143.1003  140.7965  164.5398 C.ar    1  UNL1        0.0343
     12 C         143.1088  138.8060  161.1065 C.2     1  UNL1        0.2512
     13 O         144.4662  138.4913  160.5512 O.2     1  UNL1       -0.2698
     14 N         141.9117  138.8125  160.2027 N.am    1  UNL1       -0.2760
     15 C         140.5543  139.1272  160.7580 C.3     1  UNL1        0.0937
     16 C         139.3572  139.1336  159.8541 C.3     1  UNL1        0.0216
     17 C         139.5175  138.8253  158.3950 C.3     1  UNL1        0.0035
     18 C         140.8749  138.5105  157.8396 C.3     1  UNL1        0.0216
     19 C         142.0720  138.5041  158.7435 C.3     1  UNL1        0.0937
     20 C         140.5185  141.1148  169.7213 C.ar    1  UNL1        0.0740
     21 C         140.7507  141.6665  171.0967 C.ar    1  UNL1        0.0133
     22 C         141.9954  142.5027  171.0567 C.ar    1  UNL1        0.0368
     23 S         142.5324  142.4678  169.6565 S.2     1  UNL1       -0.0715
     24 C         141.6196  141.6100  168.8312 C.ar    1  UNL1        0.0853
     25 C         138.1009  138.9263  167.4595 C.2     1  UNL1        0.4076
     26 O         137.1159  138.4432  168.4824 O.2     1  UNL1       -0.2260
     27 N         139.2351  139.8168  167.8725 N.am    1  UNL1       -0.2174
     28 C         139.3843  140.2243  169.3084 C.2     1  UNL1        0.2557
     29 O         138.3993  139.7412  170.3313 O.2     1  UNL1       -0.2696
     30 H         139.8816  140.1339  167.2011 H       1  UNL1        0.1612
     31 O         137.9518  138.5188  166.0236 O.3     1  UNL1       -0.4344
     32 C         138.1583  140.3791  164.2218 C.3     1  UNL1        0.0513
     33 C         138.7486  139.2144  164.9601 C.3     1  UNL1        0.2102
@<TRIPOS>BOND
     1    32    33    1
     2    33    31    1
     3    31    25    1
     4    25    26    2
     5    25    27   am
     6    27    28   am
     7    28    29    2
     8    28    20    1
     9    20    21   ar
    10    21    22   ar
    11    22    23   ar
    12    23    24   ar
    13    24     1    1
    14     1     2   am
    15     2     3    2
    16     2     5    1
    17     5     6   ar
    18     6     7   ar
    19     7     8   ar
    20     8    12    1
    21    12    13    2
    22    12    14   am
    23    14    15    1
    24    15    16    1
    25    16    17    1
    26    17    18    1
    27    18    19    1
    28     8     9   ar
    29     9    10    1
    30     9    11   ar
    31    24    20   ar
    32    11     5   ar
    33    19    14    1
    34    27    30    1
    35     1     4    1
@<TRIPOS>MOLECULE
*****
 33 35 0 0 0
SMALL
GASTEIGER

@<TRIPOS>ATOM
      1 N         136.5704  141.9701  156.7292 N.am    1  UNL1       -0.2753
      2 C         137.5277  140.9029  157.1702 C.2     1  UNL1        0.2499
      3 O         137.8320  139.7471  156.2639 O.2     1  UNL1       -0.2698
      4 H         136.3708  142.7287  157.3241 H       1  UNL1        0.1556
      5 C         138.1809  140.9915  158.5177 C.ar    1  UNL1        0.0559
      6 C         139.3823  141.8682  158.7126 C.ar    1  UNL1        0.0048
      7 C         140.0354  141.9567  160.0600 C.ar    1  UNL1        0.0069
      8 C         139.4871  141.1686  161.2125 C.ar    1  UNL1        0.0810
      9 C         138.2857  140.2919  161.0176 C.ar    1  UNL1        0.1446
     10 F         137.7374  139.5038  162.1701 F       1  UNL1       -0.2040
     11 C         137.6326  140.2034  159.6702 C.ar    1  UNL1        0.0343
     12 C         140.1403  141.2572  162.5600 C.2     1  UNL1        0.2512
     13 O         141.2147  140.2812  162.9383 O.2     1  UNL1       -0.2698
     14 N         139.7190  142.3217  163.5292 N.am    1  UNL1       -0.2760
     15 C         138.6446  143.2977  163.1509 C.3     1  UNL1        0.0937
     16 C         138.2233  144.3622  164.1201 C.3     1  UNL1        0.0216
     17 C         138.8764  144.4508  165.4675 C.3     1  UNL1        0.0035
     18 C         139.9509  143.4748  165.8458 C.3     1  UNL1        0.0216
     19 C         140.3722  142.4103  164.8766 C.3     1  UNL1        0.0937
     20 C         134.6616  141.1274  155.0585 C.ar    1  UNL1        0.0740
     21 C         134.3734  141.3113  153.5979 C.ar    1  UNL1        0.0133
     22 C         135.4510  142.1792  153.0185 C.ar    1  UNL1        0.0368
     23 S         136.4052  142.5316  154.1211 S.2     1  UNL1       -0.0715
     24 C         135.9172  141.8815  155.3817 C.ar    1  UNL1        0.0853
     25 C         131.5551  139.3105  156.7316 C.2     1  UNL1        0.4076
     26 O         132.1925  138.7335  157.9607 O.2     1  UNL1       -0.2260
     27 N         132.3782  140.1085  155.7642 N.am    1  UNL1       -0.2174
     28 C         133.8386  140.3294  156.0259 C.2     1  UNL1        0.2557
     29 O         134.4759  139.7523  157.2550 O.2     1  UNL1       -0.2696
     30 H         131.9599  140.4873  154.9575 H       1  UNL1        0.1612
     31 O         130.0948  139.0897  156.4698 O.3     1  UNL1       -0.4344
     32 C         128.8164  137.2589  157.7978 C.3     1  UNL1        0.0513
     33 C         129.5191  137.7069  156.5507 C.3     1  UNL1        0.2102
@<TRIPOS>BOND
     1    32    33    1
     2    33    31    1
     3    31    25    1
     4    25    26    2
     5    25    27   am
     6    27    28   am
     7    28    29    2
     8    28    20    1
     9    20    21   ar
    10    21    22   ar
    11    22    23   ar
    12    23    24   ar
    13    24     1    1
    14     1     2   am
    15     2     3    2
    16     2     5    1
    17     5     6   ar
    18     6     7   ar
    19     7     8   ar
    20     8    12    1
    21    12    13    2
    22    12    14   am
    23    14    15    1
    24    15    16    1
    25    16    17    1
    26    17    18    1
    27    18    19    1
    28     8     9   ar
    29     9    10    1
    30     9    11   ar
    31    24    20   ar
    32    11     5   ar
    33    19    14    1
    34    27    30    1
    35     1     4    1
@<TRIPOS>MOLECULE
*****
 33 35 0 0 0
SMALL
GASTEIGER

@<TRIPOS>ATOM
      1 N         141.7595  142.2217  167.2483 N.am    1  UNL1       -0.2753
      2 C         142.4679  141.2667  166.3340 C.2     1  UNL1        0.2499
      3 O         142.9642  139.9528  166.8604 O.2     1  UNL1       -0.2698
      4 H         141.4338  143.0841  166.9028 H       1  UNL1        0.1556
      5 C         142.6800  141.6257  164.8930 C.ar    1  UNL1        0.0559
      6 C         142.0975  140.7644  163.8119 C.ar    1  UNL1        0.0048
      7 C         142.3096  141.1234  162.3711 C.ar    1  UNL1        0.0069
      8 C         143.1042  142.3436  162.0113 C.ar    1  UNL1        0.0810
      9 C         143.6868  143.2049  163.0924 C.ar    1  UNL1        0.1446
     10 F         144.4814  144.4252  162.7326 F       1  UNL1       -0.2040
     11 C         143.4746  142.8460  164.5332 C.ar    1  UNL1        0.0343
     12 C         143.3163  142.7026  160.5704 C.2     1  UNL1        0.2512
     13 O         144.4569  142.0975  159.8068 O.2     1  UNL1       -0.2698
     14 N         142.3879  143.6666  159.8931 N.am    1  UNL1       -0.2760
     15 C         141.2474  144.2716  160.6567 C.3     1  UNL1        0.0937
     16 C         140.3189  145.2357  159.9793 C.3     1  UNL1        0.0216
     17 C         140.5311  145.5946  158.5384 C.3     1  UNL1        0.0035
     18 C         141.6716  144.9895  157.7749 C.3     1  UNL1        0.0216
     19 C         142.6000  144.0255  158.4521 C.3     1  UNL1        0.0937
     20 C         140.5122  140.9151  169.2187 C.ar    1  UNL1        0.0740
     21 C         140.6583  140.8551  170.7103 C.ar    1  UNL1        0.0133
     22 C         141.7838  141.7658  171.1029 C.ar    1  UNL1        0.0368
     23 S         142.3333  142.3886  169.8537 S.2     1  UNL1       -0.0715
     24 C         141.5474  141.8628  168.6893 C.ar    1  UNL1        0.0853
     25 C         138.6704  139.3039  166.0942 C.2     1  UNL1        0.4076
     26 O         137.4978  138.6497  166.7627 O.2     1  UNL1       -0.2260
     27 N         139.6752  140.0590  166.9129 N.am    1  UNL1       -0.2174
     28 C         139.5074  140.1600  168.4001 C.2     1  UNL1        0.2557
     29 O         138.3348  139.5057  169.0686 O.2     1  UNL1       -0.2696
     30 H         140.4448  140.4884  166.4741 H       1  UNL1        0.1612
     31 O         138.8383  139.2031  164.6071 O.3     1  UNL1       -0.4344
     32 C         139.9567  137.6848  162.8200 C.3     1  UNL1        0.0513
     33 C         138.9973  137.8593  163.9598 C.3     1  UNL1        0.2102
@<TRIPOS>BOND
     1    32    33    1
     2    33    31    1
     3    31    25    1
     4    25    26    2
     5    25    27   am
     6    27    28   am
     7    28    29    2
     8    28    20    1
     9    20    21   ar
    10    21    22   ar
    11    22    23   ar
    12    23    24   ar
    13    24     1    1
    14     1     2   am
    15     2     3    2
    16     2     5    1
    17     5     6   ar
    18     6     7   ar
    19     7     8   ar
    20     8    12    1
    21    12    13    2
    22    12    14   am
    23    14    15    1
    24    15    16    1
    25    16    17    1
    26    17    18    1
    27    18    19    1
    28     8     9   ar
    29     9    10    1
    30     9    11   ar
    31    24    20   ar
    32    11     5   ar
    33    19    14    1
    34    27    30    1
    35     1     4    1
@<TRIPOS>MOLECULE
*****
 33 35 0 0 0
SMALL
GASTEIGER

@<TRIPOS>ATOM
      1 N         143.2271  138.0522  159.5669 N.am    1  UNL1       -0.2753
      2 C         142.1624  138.4982  160.5248 C.2     1  UNL1        0.2499
      3 O         140.8346  138.9649  160.0061 O.2     1  UNL1       -0.2698
      4 H         144.0985  137.7458  159.9073 H       1  UNL1        0.1556
      5 C         142.4256  138.4774  162.0014 C.ar    1  UNL1        0.0559
      6 C         141.5020  137.7305  162.9174 C.ar    1  UNL1        0.0048
      7 C         141.7652  137.7097  164.3939 C.ar    1  UNL1        0.0069
      8 C         142.9520  138.4359  164.9545 C.ar    1  UNL1        0.0810
      9 C         143.8756  139.1828  164.0385 C.ar    1  UNL1        0.1446
     10 F         145.0623  139.9089  164.5991 F       1  UNL1       -0.2040
     11 C         143.6124  139.2035  162.5620 C.ar    1  UNL1        0.0343
     12 C         143.2151  138.4151  166.4311 C.2     1  UNL1        0.2512
     13 O         144.3594  137.6140  166.9778 O.2     1  UNL1       -0.2698
     14 N         142.3340  139.1954  167.3610 N.am    1  UNL1       -0.2760
     15 C         141.1897  139.9964  166.8144 C.3     1  UNL1        0.0937
     16 C         140.3086  140.7767  167.7444 C.3     1  UNL1        0.0216
     17 C         140.5718  140.7559  169.2209 C.3     1  UNL1        0.0035
     18 C         141.7161  139.9548  169.7676 C.3     1  UNL1        0.0216
     19 C         142.5972  139.1746  168.8377 C.3     1  UNL1        0.0937
     20 C         143.3924  139.1456  157.1333 C.ar    1  UNL1        0.0740
     21 C         142.9193  138.7603  155.7630 C.ar    1  UNL1        0.0133
     22 C         142.1985  137.4495  155.8730 C.ar    1  UNL1        0.0368
     23 S         142.2260  137.0246  157.3114 S.2     1  UNL1       -0.0715
     24 C         142.9639  138.0730  158.0902 C.ar    1  UNL1        0.0853
     25 C         146.0180  142.1147  156.9314 C.2     1  UNL1        0.4076
     26 O         145.6931  142.8664  158.1882 O.2     1  UNL1       -0.2260
     27 N         145.2510  140.8745  156.5798 N.am    1  UNL1       -0.2174
     28 C         144.1592  140.3859  157.4850 C.2     1  UNL1        0.2557
     29 O         143.8344  141.1375  158.7417 O.2     1  UNL1       -0.2696
     30 H         145.4643  140.3812  155.7549 H       1  UNL1        0.1612
     31 O         147.1097  142.6033  156.0262 O.3     1  UNL1       -0.4344
     32 C         149.4523  141.7109  155.3438 C.3     1  UNL1        0.0513
     33 C         147.9567  141.6199  155.2742 C.3     1  UNL1        0.2102
@<TRIPOS>BOND
     1    32    33    1
     2    33    31    1
     3    31    25    1
     4    25    26    2
     5    25    27   am
     6    27    28   am
     7    28    29    2
     8    28    20    1
     9    20    21   ar
    10    21    22   ar
    11    22    23   ar
    12    23    24   ar
    13    24     1    1
    14     1     2   am
    15     2     3    2
    16     2     5    1
    17     5     6   ar
    18     6     7   ar
    19     7     8   ar
    20     8    12    1
    21    12    13    2
    22    12    14   am
    23    14    15    1
    24    15    16    1
    25    16    17    1
    26    17    18    1
    27    18    19    1
    28     8     9   ar
    29     9    10    1
    30     9    11   ar
    31    24    20   ar
    32    11     5   ar
    33    19    14    1
    34    27    30    1
    35     1     4    1
