@<TRIPOS>MOLECULE
*****
 29 31 0 0 0
SMALL
GASTEIGER

@<TRIPOS>ATOM
      1 N         139.3311  142.4848  160.8044 N.3     1  UNL1       -0.2723
      2 C         138.2408  142.4555  161.8341 C.3     1  UNL1        0.0725
      3 C         138.1471  141.3072  162.7946 C.3     1  UNL1        0.0250
      4 C         139.1436  140.1882  162.7253 C.3     1  UNL1        0.0647
      5 C         140.2339  140.2176  161.6956 C.3     1  UNL1        0.0250
      6 C         140.3277  141.3659  160.7352 C.3     1  UNL1        0.0725
      7 C         139.0498  139.0398  163.6859 C.2     1  UNL1        0.1727
      8 O         138.9956  137.6326  163.1694 O.2     1  UNL1       -0.2914
      9 C         139.0103  139.2987  165.1628 C.ar    1  UNL1        0.0348
     10 C         138.0575  138.5340  166.0330 C.ar    1  UNL1        0.0042
     11 C         138.0179  138.7929  167.5100 C.ar    1  UNL1        0.0159
     12 C         138.9312  139.8166  168.1167 C.ar    1  UNL1        0.0644
     13 C         139.8839  140.5814  167.2465 C.ar    1  UNL1        0.0159
     14 C         139.9235  140.3224  165.7694 C.ar    1  UNL1        0.0042
     15 N         138.8916  140.0755  169.5936 N.pl3   1  UNL1       -0.2187
     16 H         138.0776  139.8697  170.1078 H       1  UNL1        0.1734
     17 S         140.0921  140.6479  170.2872 S.O2    1  UNL1        0.0558
     18 C         141.2927  141.2203  170.9807 C.3     1  UNL1        0.1996
     19 O         140.8076  139.3391  170.1288 O.2     1  UNL1       -0.1544
     20 O         139.3766  141.9567  170.4456 O.2     1  UNL1       -0.1544
     21 C         139.4249  143.6332  159.8439 C.3     1  UNL1        0.0784
     22 C         140.3662  144.7677  160.1209 C.3     1  UNL1        0.0631
     23 C         144.8359  143.2602  162.3001 C.3     1  UNL1        0.0521
     24 C         143.5124  143.9588  162.4006 C.ar    1  UNL1        0.0590
     25 C         143.1002  144.6024  163.6913 C.ar    1  UNL1        0.0147
     26 C         141.7766  145.3010  163.7919 C.ar    1  UNL1        0.0024
     27 C         140.8653  145.3561  162.6018 C.ar    1  UNL1        0.0148
     28 C         141.2775  144.7126  161.3111 C.ar    1  UNL1        0.0600
     29 N         142.6011  144.0140  161.2105 N.ar    1  UNL1       -0.2539
@<TRIPOS>BOND
     1    23    24    1
     2    24    25   ar
     3    25    26   ar
     4    26    27   ar
     5    27    28   ar
     6    28    22    1
     7    22    21    1
     8    21     1    1
     9     1     2    1
    10     2     3    1
    11     3     4    1
    12     4     7    1
    13     7     8    2
    14     7     9    1
    15     9    10   ar
    16    10    11   ar
    17    11    12   ar
    18    12    15    1
    19    15    17    1
    20    17    18    1
    21    17    19    2
    22    17    20    2
    23    12    13   ar
    24    13    14   ar
    25     4     5    1
    26     5     6    1
    27    28    29   ar
    28    29    24   ar
    29     6     1    1
    30    14     9   ar
    31    15    16    1
@<TRIPOS>MOLECULE
*****
 29 31 0 0 0
SMALL
GASTEIGER

@<TRIPOS>ATOM
      1 N         141.9098  141.2678  160.6524 N.3     1  UNL1       -0.2723
      2 C         141.7800  140.0637  161.5373 C.3     1  UNL1        0.0725
      3 C         140.6270  139.9542  162.4905 C.3     1  UNL1        0.0250
      4 C         139.6038  141.0489  162.5588 C.3     1  UNL1        0.0647
      5 C         139.7336  142.2530  161.6738 C.3     1  UNL1        0.0250
      6 C         140.8865  142.3625  160.7206 C.3     1  UNL1        0.0725
      7 C         138.4508  140.9394  163.5120 C.2     1  UNL1        0.1727
      8 O         137.0500  141.1602  163.0232 O.2     1  UNL1       -0.2914
      9 C         138.6986  140.6091  164.9541 C.ar    1  UNL1        0.0348
     10 C         138.0324  139.4177  165.5758 C.ar    1  UNL1        0.0042
     11 C         138.2802  139.0874  167.0179 C.ar    1  UNL1        0.0159
     12 C         139.1943  139.9486  167.8382 C.ar    1  UNL1        0.0644
     13 C         139.8606  141.1400  167.2164 C.ar    1  UNL1        0.0159
     14 C         139.6127  141.4703  165.7743 C.ar    1  UNL1        0.0042
     15 N         139.4422  139.6183  169.2802 N.pl3   1  UNL1       -0.2187
     16 H         139.0772  138.7889  169.6650 H       1  UNL1        0.1734
     17 S         140.2461  140.5518  170.1360 S.O2    1  UNL1        0.0558
     18 C         141.0500  141.4852  170.9917 C.3     1  UNL1        0.1996
     19 O         139.0180  141.3736  170.3933 O.2     1  UNL1       -0.1544
     20 O         141.4743  139.7299  169.8786 O.2     1  UNL1       -0.1544
     21 C         143.0628  141.3773  159.6991 C.3     1  UNL1        0.0784
     22 C         144.3379  142.0348  160.1368 C.3     1  UNL1        0.0631
     23 C         143.6203  145.4435  163.9925 C.3     1  UNL1        0.0521
     24 C         144.1645  144.1355  163.4994 C.ar    1  UNL1        0.0590
     25 C         144.8940  143.2239  164.4411 C.ar    1  UNL1        0.0147
     26 C         145.4382  141.9160  163.9480 C.ar    1  UNL1        0.0024
     27 C         145.2529  141.5196  162.5133 C.ar    1  UNL1        0.0148
     28 C         144.5233  142.4312  161.5716 C.ar    1  UNL1        0.0600
     29 N         143.9791  143.7391  162.0647 N.ar    1  UNL1       -0.2539
@<TRIPOS>BOND
     1    23    24    1
     2    24    25   ar
     3    25    26   ar
     4    26    27   ar
     5    27    28   ar
     6    28    22    1
     7    22    21    1
     8    21     1    1
     9     1     2    1
    10     2     3    1
    11     3     4    1
    12     4     7    1
    13     7     8    2
    14     7     9    1
    15     9    10   ar
    16    10    11   ar
    17    11    12   ar
    18    12    15    1
    19    15    17    1
    20    17    18    1
    21    17    19    2
    22    17    20    2
    23    12    13   ar
    24    13    14   ar
    25     4     5    1
    26     5     6    1
    27    28    29   ar
    28    29    24   ar
    29     6     1    1
    30    14     9   ar
    31    15    16    1
@<TRIPOS>MOLECULE
*****
 29 31 0 0 0
SMALL
GASTEIGER

@<TRIPOS>ATOM
      1 N         142.1948  143.9444  161.3500 N.3     1  UNL1       -0.2723
      2 C         142.2986  142.4608  161.1550 C.3     1  UNL1        0.0725
      3 C         143.0454  141.6239  162.1509 C.3     1  UNL1        0.0250
      4 C         143.6885  142.2707  163.3418 C.3     1  UNL1        0.0647
      5 C         143.5848  143.7543  163.5368 C.3     1  UNL1        0.0250
      6 C         142.8379  144.5911  162.5409 C.3     1  UNL1        0.0725
      7 C         144.4354  141.4337  164.3377 C.2     1  UNL1        0.1727
      8 O         145.8664  141.0633  164.0829 O.2     1  UNL1       -0.2914
      9 C         143.7512  140.9673  165.5884 C.ar    1  UNL1        0.0348
     10 C         143.4870  139.5057  165.7983 C.ar    1  UNL1        0.0042
     11 C         142.8029  139.0393  167.0490 C.ar    1  UNL1        0.0159
     12 C         142.3829  140.0344  168.0899 C.ar    1  UNL1        0.0644
     13 C         142.6470  141.4959  167.8800 C.ar    1  UNL1        0.0159
     14 C         143.3312  141.9624  166.6292 C.ar    1  UNL1        0.0042
     15 N         141.6987  139.5679  169.3406 N.pl3   1  UNL1       -0.2187
     16 H         142.1151  138.8725  169.8994 H       1  UNL1        0.1734
     17 S         140.3801  140.1611  169.7400 S.O2    1  UNL1        0.0558
     18 C         139.0615  140.7542  170.1394 C.3     1  UNL1        0.1996
     19 O         141.0031  140.7028  170.9924 O.2     1  UNL1       -0.1544
     20 O         139.7571  139.6194  168.4877 O.2     1  UNL1       -0.1544
     21 C         141.4480  144.7813  160.3541 C.3     1  UNL1        0.0784
     22 C         140.0124  145.1389  160.6015 C.3     1  UNL1        0.0631
     23 C         138.4564  145.0104  165.5575 C.3     1  UNL1        0.0521
     24 C         138.4744  144.4044  164.1855 C.ar    1  UNL1        0.0590
     25 C         137.7324  143.1282  163.9194 C.ar    1  UNL1        0.0147
     26 C         137.7505  142.5223  162.5474 C.ar    1  UNL1        0.0024
     27 C         138.5104  143.1925  161.4414 C.ar    1  UNL1        0.0148
     28 C         139.2524  144.4687  161.7075 C.ar    1  UNL1        0.0600
     29 N         139.2344  145.0746  163.0795 N.ar    1  UNL1       -0.2539
@<TRIPOS>BOND
     1    23    24    1
     2    24    25   ar
     3    25    26   ar
     4    26    27   ar
     5    27    28   ar
     6    28    22    1
     7    22    21    1
     8    21     1    1
     9     1     2    1
    10     2     3    1
    11     3     4    1
    12     4     7    1
    13     7     8    2
    14     7     9    1
    15     9    10   ar
    16    10    11   ar
    17    11    12   ar
    18    12    15    1
    19    15    17    1
    20    17    18    1
    21    17    19    2
    22    17    20    2
    23    12    13   ar
    24    13    14   ar
    25     4     5    1
    26     5     6    1
    27    28    29   ar
    28    29    24   ar
    29     6     1    1
    30    14     9   ar
    31    15    16    1
@<TRIPOS>MOLECULE
*****
 29 31 0 0 0
SMALL
GASTEIGER

@<TRIPOS>ATOM
      1 N         140.4421  140.3553  161.1477 N.3     1  UNL1       -0.2723
      2 C         140.2051  139.3760  162.2589 C.3     1  UNL1        0.0725
      3 C         141.2369  139.1959  163.3326 C.3     1  UNL1        0.0250
      4 C         142.5058  139.9949  163.2950 C.3     1  UNL1        0.0647
      5 C         142.7429  140.9741  162.1838 C.3     1  UNL1        0.0250
      6 C         141.7110  141.1543  161.1101 C.3     1  UNL1        0.0725
      7 C         143.5377  139.8147  164.3687 C.2     1  UNL1        0.1727
      8 O         144.8813  139.2408  164.0290 O.2     1  UNL1       -0.2914
      9 C         143.2260  140.2083  165.7822 C.ar    1  UNL1        0.0348
     10 C         142.9435  139.1527  166.8098 C.ar    1  UNL1        0.0042
     11 C         142.6318  139.5464  168.2232 C.ar    1  UNL1        0.0159
     12 C         142.6025  140.9956  168.6091 C.ar    1  UNL1        0.0644
     13 C         142.8849  142.0512  167.5815 C.ar    1  UNL1        0.0159
     14 C         143.1966  141.6575  166.1680 C.ar    1  UNL1        0.0042
     15 N         142.2907  141.3893  170.0225 N.pl3   1  UNL1       -0.2187
     16 H         142.8957  141.1236  170.7523 H       1  UNL1        0.1734
     17 S         141.0572  142.1877  170.3240 S.O2    1  UNL1        0.0558
     18 C         139.8237  142.9862  170.6255 C.3     1  UNL1        0.1996
     19 O         141.8991  143.4131  170.5231 O.2     1  UNL1       -0.1544
     20 O         140.2153  140.9623  170.1250 O.2     1  UNL1       -0.1544
     21 C         139.4103  140.5355  160.0739 C.3     1  UNL1        0.0784
     22 C         138.2639  141.4793  160.2862 C.3     1  UNL1        0.0631
     23 C         139.8549  146.1352  161.9570 C.3     1  UNL1        0.0521
     24 C         139.1320  144.8441  162.2031 C.ar    1  UNL1        0.0590
     25 C         138.4817  144.5900  163.5306 C.ar    1  UNL1        0.0147
     26 C         137.7588  143.2989  163.7767 C.ar    1  UNL1        0.0024
     27 C         137.6862  142.2620  162.6953 C.ar    1  UNL1        0.0148
     28 C         138.3365  142.5162  161.3678 C.ar    1  UNL1        0.0600
     29 N         139.0594  143.8072  161.1217 N.ar    1  UNL1       -0.2539
@<TRIPOS>BOND
     1    23    24    1
     2    24    25   ar
     3    25    26   ar
     4    26    27   ar
     5    27    28   ar
     6    28    22    1
     7    22    21    1
     8    21     1    1
     9     1     2    1
    10     2     3    1
    11     3     4    1
    12     4     7    1
    13     7     8    2
    14     7     9    1
    15     9    10   ar
    16    10    11   ar
    17    11    12   ar
    18    12    15    1
    19    15    17    1
    20    17    18    1
    21    17    19    2
    22    17    20    2
    23    12    13   ar
    24    13    14   ar
    25     4     5    1
    26     5     6    1
    27    28    29   ar
    28    29    24   ar
    29     6     1    1
    30    14     9   ar
    31    15    16    1
@<TRIPOS>MOLECULE
*****
 29 31 0 0 0
SMALL
GASTEIGER

@<TRIPOS>ATOM
      1 N         144.0784  139.7777  161.7876 N.3     1  UNL1       -0.2723
      2 C         144.1645  139.3324  163.2174 C.3     1  UNL1        0.0725
      3 C         144.0750  140.3412  164.3238 C.3     1  UNL1        0.0250
      4 C         143.8994  141.7954  164.0004 C.3     1  UNL1        0.0647
      5 C         143.8133  142.2407  162.5707 C.3     1  UNL1        0.0250
      6 C         143.9029  141.2319  161.4643 C.3     1  UNL1        0.0725
      7 C         143.8099  142.8043  165.1069 C.2     1  UNL1        0.1727
      8 O         144.6890  144.0195  165.0868 O.2     1  UNL1       -0.2914
      9 C         142.8413  142.5979  166.2335 C.ar    1  UNL1        0.0348
     10 C         143.3487  142.3601  167.6248 C.ar    1  UNL1        0.0042
     11 C         142.3801  142.1537  168.7514 C.ar    1  UNL1        0.0159
     12 C         140.9039  142.1851  168.4866 C.ar    1  UNL1        0.0644
     13 C         140.3965  142.4229  167.0952 C.ar    1  UNL1        0.0159
     14 C         141.3652  142.6293  165.9686 C.ar    1  UNL1        0.0042
     15 N         139.9353  141.9788  169.6131 N.pl3   1  UNL1       -0.2187
     16 H         139.2367  142.6493  169.7907 H       1  UNL1        0.1734
     17 S         140.0312  140.7508  170.4692 S.O2    1  UNL1        0.0558
     18 C         140.1271  139.5228  171.3253 C.3     1  UNL1        0.1996
     19 O         140.4782  141.5930  171.6272 O.2     1  UNL1       -0.1544
     20 O         139.5842  139.9086  169.3113 O.2     1  UNL1       -0.1544
     21 C         144.1680  138.7688  160.6811 C.3     1  UNL1        0.0784
     22 C         143.1635  137.6582  160.5958 C.3     1  UNL1        0.0631
     23 C         138.9488  137.5691  163.6337 C.3     1  UNL1        0.0521
     24 C         139.5991  137.9024  162.3237 C.ar    1  UNL1        0.0590
     25 C         138.7924  138.5245  161.2228 C.ar    1  UNL1        0.0147
     26 C         139.4427  138.8578  159.9128 C.ar    1  UNL1        0.0024
     27 C         140.8997  138.5690  159.7038 C.ar    1  UNL1        0.0148
     28 C         141.7064  137.9470  160.8048 C.ar    1  UNL1        0.0600
     29 N         141.0561  137.6137  162.1147 N.ar    1  UNL1       -0.2539
@<TRIPOS>BOND
     1    23    24    1
     2    24    25   ar
     3    25    26   ar
     4    26    27   ar
     5    27    28   ar
     6    28    22    1
     7    22    21    1
     8    21     1    1
     9     1     2    1
    10     2     3    1
    11     3     4    1
    12     4     7    1
    13     7     8    2
    14     7     9    1
    15     9    10   ar
    16    10    11   ar
    17    11    12   ar
    18    12    15    1
    19    15    17    1
    20    17    18    1
    21    17    19    2
    22    17    20    2
    23    12    13   ar
    24    13    14   ar
    25     4     5    1
    26     5     6    1
    27    28    29   ar
    28    29    24   ar
    29     6     1    1
    30    14     9   ar
    31    15    16    1
@<TRIPOS>MOLECULE
*****
 29 31 0 0 0
SMALL
GASTEIGER

@<TRIPOS>ATOM
      1 N         143.2309  140.5336  161.1207 N.3     1  UNL1       -0.2723
      2 C         141.7490  140.3884  161.3018 C.3     1  UNL1        0.0725
      3 C         141.2079  139.6260  162.4748 C.3     1  UNL1        0.0250
      4 C         142.1488  139.0088  163.4667 C.3     1  UNL1        0.0647
      5 C         143.6307  139.1540  163.2856 C.3     1  UNL1        0.0250
      6 C         144.1717  139.9164  162.1126 C.3     1  UNL1        0.0725
      7 C         141.6076  138.2463  164.6397 C.2     1  UNL1        0.1727
      8 O         141.2876  136.7873  164.5028 O.2     1  UNL1       -0.2914
      9 C         141.3865  138.9430  165.9496 C.ar    1  UNL1        0.0348
     10 C         142.5284  139.1229  166.9055 C.ar    1  UNL1        0.0042
     11 C         142.3073  139.8195  168.2154 C.ar    1  UNL1        0.0159
     12 C         140.9442  140.3362  168.5694 C.ar    1  UNL1        0.0644
     13 C         139.8024  140.1563  167.6134 C.ar    1  UNL1        0.0159
     14 C         140.0236  139.4597  166.3035 C.ar    1  UNL1        0.0042
     15 N         140.7231  141.0329  169.8792 N.pl3   1  UNL1       -0.2187
     16 H         139.9502  140.7932  170.4399 H       1  UNL1        0.1734
     17 S         141.6797  142.0947  170.3349 S.O2    1  UNL1        0.0558
     18 C         142.6362  143.1565  170.7905 C.3     1  UNL1        0.1996
     19 O         141.3851  142.8908  169.0982 O.2     1  UNL1       -0.1544
     20 O         141.9743  141.2985  171.5715 O.2     1  UNL1       -0.1544
     21 C         143.7721  141.2960  159.9477 C.3     1  UNL1        0.0784
     22 C         144.1353  142.7436  160.0971 C.3     1  UNL1        0.0631
     23 C         140.3971  145.6776  162.1988 C.3     1  UNL1        0.0521
     24 C         141.7323  145.0023  162.3047 C.ar    1  UNL1        0.0590
     25 C         142.5336  145.1188  163.5674 C.ar    1  UNL1        0.0147
     26 C         143.8688  144.4435  163.6733 C.ar    1  UNL1        0.0024
     27 C         144.4027  143.6518  162.5166 C.ar    1  UNL1        0.0148
     28 C         143.6014  143.5354  161.2539 C.ar    1  UNL1        0.0600
     29 N         142.2662  144.2106  161.1480 N.ar    1  UNL1       -0.2539
@<TRIPOS>BOND
     1    23    24    1
     2    24    25   ar
     3    25    26   ar
     4    26    27   ar
     5    27    28   ar
     6    28    22    1
     7    22    21    1
     8    21     1    1
     9     1     2    1
    10     2     3    1
    11     3     4    1
    12     4     7    1
    13     7     8    2
    14     7     9    1
    15     9    10   ar
    16    10    11   ar
    17    11    12   ar
    18    12    15    1
    19    15    17    1
    20    17    18    1
    21    17    19    2
    22    17    20    2
    23    12    13   ar
    24    13    14   ar
    25     4     5    1
    26     5     6    1
    27    28    29   ar
    28    29    24   ar
    29     6     1    1
    30    14     9   ar
    31    15    16    1
@<TRIPOS>MOLECULE
*****
 29 31 0 0 0
SMALL
GASTEIGER

@<TRIPOS>ATOM
      1 N         141.4673  142.6201  160.1213 N.3     1  UNL1       -0.2723
      2 C         142.0874  143.6617  161.0047 C.3     1  UNL1        0.0725
      3 C         143.0673  143.2580  162.0662 C.3     1  UNL1        0.0250
      4 C         143.4270  141.8127  162.2443 C.3     1  UNL1        0.0647
      5 C         142.8069  140.7711  161.3609 C.3     1  UNL1        0.0250
      6 C         141.8270  141.1748  160.2994 C.3     1  UNL1        0.0725
      7 C         144.4070  141.4091  163.3059 C.2     1  UNL1        0.1727
      8 O         145.8788  141.5783  163.0713 O.2     1  UNL1       -0.2914
      9 C         143.9150  140.8363  164.6020 C.ar    1  UNL1        0.0348
     10 C         143.9814  139.3570  164.8414 C.ar    1  UNL1        0.0042
     11 C         143.4894  138.7842  166.1375 C.ar    1  UNL1        0.0159
     12 C         142.9311  139.6907  167.1942 C.ar    1  UNL1        0.0644
     13 C         142.8648  141.1700  166.9548 C.ar    1  UNL1        0.0159
     14 C         143.3568  141.7428  165.6586 C.ar    1  UNL1        0.0042
     15 N         142.4392  139.1179  168.4903 N.pl3   1  UNL1       -0.2187
     16 H         142.4647  138.1451  168.6397 H       1  UNL1        0.1734
     17 S         141.9085  140.0272  169.5587 S.O2    1  UNL1        0.0558
     18 C         141.3777  140.9364  170.6271 C.3     1  UNL1        0.1996
     19 O         143.2907  140.1701  170.1236 O.2     1  UNL1       -0.1544
     20 O         140.5263  139.8842  168.9938 O.2     1  UNL1       -0.1544
     21 C         140.4874  143.0237  159.0597 C.3     1  UNL1        0.0784
     22 C         139.0142  142.8967  159.3116 C.3     1  UNL1        0.0631
     23 C         137.7781  144.1535  164.1996 C.3     1  UNL1        0.0521
     24 C         137.8990  143.1261  163.1134 C.ar    1  UNL1        0.0590
     25 C         137.5228  141.6997  163.3850 C.ar    1  UNL1        0.0147
     26 C         137.6437  140.6722  162.2988 C.ar    1  UNL1        0.0024
     27 C         138.1408  141.0712  160.9410 C.ar    1  UNL1        0.0148
     28 C         138.5170  142.4976  160.6694 C.ar    1  UNL1        0.0600
     29 N         138.3961  143.5250  161.7556 N.ar    1  UNL1       -0.2539
@<TRIPOS>BOND
     1    23    24    1
     2    24    25   ar
     3    25    26   ar
     4    26    27   ar
     5    27    28   ar
     6    28    22    1
     7    22    21    1
     8    21     1    1
     9     1     2    1
    10     2     3    1
    11     3     4    1
    12     4     7    1
    13     7     8    2
    14     7     9    1
    15     9    10   ar
    16    10    11   ar
    17    11    12   ar
    18    12    15    1
    19    15    17    1
    20    17    18    1
    21    17    19    2
    22    17    20    2
    23    12    13   ar
    24    13    14   ar
    25     4     5    1
    26     5     6    1
    27    28    29   ar
    28    29    24   ar
    29     6     1    1
    30    14     9   ar
    31    15    16    1
@<TRIPOS>MOLECULE
*****
 29 31 0 0 0
SMALL
GASTEIGER

@<TRIPOS>ATOM
      1 N         138.9835  141.6428  161.2838 N.3     1  UNL1       -0.2723
      2 C         138.1127  141.8582  162.4859 C.3     1  UNL1        0.0725
      3 C         138.2460  140.9592  163.6793 C.3     1  UNL1        0.0250
      4 C         139.2502  139.8450  163.6705 C.3     1  UNL1        0.0647
      5 C         140.1210  139.6296  162.4683 C.3     1  UNL1        0.0250
      6 C         139.9877  140.5285  161.2750 C.3     1  UNL1        0.0725
      7 C         139.3835  138.9460  164.8639 C.2     1  UNL1        0.1727
      8 O         138.6087  137.6631  164.9267 O.2     1  UNL1       -0.2914
      9 C         140.2914  139.3300  165.9944 C.ar    1  UNL1        0.0348
     10 C         141.7786  139.2203  165.8323 C.ar    1  UNL1        0.0042
     11 C         142.6866  139.6043  166.9628 C.ar    1  UNL1        0.0159
     12 C         142.1074  140.0980  168.2555 C.ar    1  UNL1        0.0644
     13 C         140.6202  140.2078  168.4175 C.ar    1  UNL1        0.0159
     14 C         139.7122  139.8237  167.2869 C.ar    1  UNL1        0.0042
     15 N         143.0154  140.4820  169.3860 N.pl3   1  UNL1       -0.2187
     16 H         143.6743  139.8361  169.7293 H       1  UNL1        0.1734
     17 S         142.9195  141.8501  169.9934 S.O2    1  UNL1        0.0558
     18 C         142.8236  143.2183  170.6009 C.3     1  UNL1        0.1996
     19 O         143.6498  142.4242  168.8157 O.2     1  UNL1       -0.1544
     20 O         142.1892  141.2760  171.1712 O.2     1  UNL1       -0.1544
     21 C         138.8502  142.5418  160.0903 C.3     1  UNL1        0.0784
     22 C         139.7998  143.6880  159.9050 C.3     1  UNL1        0.0631
     23 C         144.4456  143.6052  162.2308 C.3     1  UNL1        0.0521
     24 C         143.0191  144.0676  162.1945 C.ar    1  UNL1        0.0590
     25 C         142.4890  144.9510  163.2847 C.ar    1  UNL1        0.0147
     26 C         141.0626  145.4135  163.2483 C.ar    1  UNL1        0.0024
     27 C         140.1661  144.9925  162.1218 C.ar    1  UNL1        0.0148
     28 C         140.6962  144.1090  161.0316 C.ar    1  UNL1        0.0600
     29 N         142.1227  143.6466  161.0680 N.ar    1  UNL1       -0.2539
@<TRIPOS>BOND
     1    23    24    1
     2    24    25   ar
     3    25    26   ar
     4    26    27   ar
     5    27    28   ar
     6    28    22    1
     7    22    21    1
     8    21     1    1
     9     1     2    1
    10     2     3    1
    11     3     4    1
    12     4     7    1
    13     7     8    2
    14     7     9    1
    15     9    10   ar
    16    10    11   ar
    17    11    12   ar
    18    12    15    1
    19    15    17    1
    20    17    18    1
    21    17    19    2
    22    17    20    2
    23    12    13   ar
    24    13    14   ar
    25     4     5    1
    26     5     6    1
    27    28    29   ar
    28    29    24   ar
    29     6     1    1
    30    14     9   ar
    31    15    16    1
@<TRIPOS>MOLECULE
*****
 29 31 0 0 0
SMALL
GASTEIGER

@<TRIPOS>ATOM
      1 N         140.5766  140.6108  167.2279 N.3     1  UNL1       -0.2723
      2 C         140.3299  142.0614  166.9368 C.3     1  UNL1        0.0725
      3 C         141.3581  142.8629  166.1951 C.3     1  UNL1        0.0250
      4 C         142.6331  142.2138  165.7445 C.3     1  UNL1        0.0647
      5 C         142.8799  140.7632  166.0356 C.3     1  UNL1        0.0250
      6 C         141.8516  139.9617  166.7773 C.3     1  UNL1        0.0725
      7 C         143.6614  143.0154  165.0027 C.2     1  UNL1        0.1727
      8 O         144.7526  143.7165  165.7563 O.2     1  UNL1       -0.2914
      9 C         143.5986  143.1158  163.5074 C.ar    1  UNL1        0.0348
     10 C         144.6124  142.4006  162.6644 C.ar    1  UNL1        0.0042
     11 C         144.5495  142.5010  161.1691 C.ar    1  UNL1        0.0159
     12 C         143.4729  143.3168  160.5168 C.ar    1  UNL1        0.0644
     13 C         142.4591  144.0320  161.3598 C.ar    1  UNL1        0.0159
     14 C         142.5220  143.9315  162.8552 C.ar    1  UNL1        0.0042
     15 N         143.4100  143.4172  159.0215 N.pl3   1  UNL1       -0.2187
     16 H         144.2225  143.2750  158.4840 H       1  UNL1        0.1734
     17 S         142.1093  143.7343  158.3451 S.O2    1  UNL1        0.0558
     18 C         140.8085  144.0514  157.6687 C.3     1  UNL1        0.1996
     19 O         142.5581  145.1517  158.1465 O.2     1  UNL1       -0.1544
     20 O         141.6605  142.3169  158.5437 O.2     1  UNL1       -0.1544
     21 C         139.5483  139.8092  167.9697 C.3     1  UNL1        0.0784
     22 C         138.3922  139.2042  167.2299 C.3     1  UNL1        0.0631
     23 C         137.5951  141.2067  162.5018 C.3     1  UNL1        0.0521
     24 C         138.0460  140.0717  163.3727 C.ar    1  UNL1        0.0590
     25 C         138.5493  138.8030  162.7505 C.ar    1  UNL1        0.0147
     26 C         139.0002  137.6681  163.6215 C.ar    1  UNL1        0.0024
     27 C         138.9479  137.8018  165.1145 C.ar    1  UNL1        0.0148
     28 C         138.4446  139.0704  165.7367 C.ar    1  UNL1        0.0600
     29 N         137.9937  140.2054  164.8658 N.ar    1  UNL1       -0.2539
@<TRIPOS>BOND
     1    23    24    1
     2    24    25   ar
     3    25    26   ar
     4    26    27   ar
     5    27    28   ar
     6    28    22    1
     7    22    21    1
     8    21     1    1
     9     1     2    1
    10     2     3    1
    11     3     4    1
    12     4     7    1
    13     7     8    2
    14     7     9    1
    15     9    10   ar
    16    10    11   ar
    17    11    12   ar
    18    12    15    1
    19    15    17    1
    20    17    18    1
    21    17    19    2
    22    17    20    2
    23    12    13   ar
    24    13    14   ar
    25     4     5    1
    26     5     6    1
    27    28    29   ar
    28    29    24   ar
    29     6     1    1
    30    14     9   ar
    31    15    16    1
