@<TRIPOS>MOLECULE
*****
 39 44 0 0 0
SMALL
GASTEIGER

@<TRIPOS>ATOM
      1 C         142.8099  135.7962  157.6859 C.ar    1  UNL1        0.2400
      2 N         142.2234  135.3424  156.3821 N.ar    1  UNL1       -0.2090
      3 C         141.4873  136.3168  155.5112 C.ar    1  UNL1        0.1026
      4 C         141.1562  137.8167  155.6458 C.ar    1  UNL1        0.0267
      5 C         141.9342  137.2726  156.8072 C.ar    1  UNL1        0.0226
      6 C         142.6602  137.2245  158.1189 C.ar    1  UNL1        0.1178
      7 N         143.2467  137.6783  159.4228 N.pl3   1  UNL1       -0.2104
      8 S         143.6228  138.5793  160.5615 S.O2    1  UNL1        0.0737
      9 O         144.3764  138.3623  161.8402 O.2     1  UNL1       -0.1499
     10 O         144.0993  137.1680  160.7382 O.2     1  UNL1       -0.1499
     11 C         143.7434  139.8187  161.3979 C.ar    1  UNL1        0.1253
     12 C         144.4694  139.7707  162.7096 C.ar    1  UNL1        0.0202
     13 C         144.5899  141.0100  163.5459 C.ar    1  UNL1        0.0015
     14 C         143.9844  142.2974  163.0704 C.ar    1  UNL1        0.0046
     15 C         143.2584  142.3455  161.7587 C.ar    1  UNL1        0.0547
     16 C         143.1379  141.1061  160.9225 C.ar    1  UNL1        0.0247
     17 C         142.5865  143.9794  161.3329 C.2     1  UNL1        0.2461
     18 O         142.9626  144.8804  162.4716 O.2     1  UNL1       -0.2701
     19 N         141.8503  144.9539  160.4619 N.am    1  UNL1       -0.2969
     20 C         141.0724  145.4980  159.3006 C.3     1  UNL1        0.1181
     21 C         140.3464  145.5460  157.9888 C.ar    1  UNL1        0.0167
     22 C         139.6248  146.6700  157.2188 C.ar    1  UNL1        0.0962
     23 N         138.8988  146.7180  155.9070 N.ar    1  UNL1       -0.2425
     24 C         138.7783  145.4786  155.0708 C.ar    1  UNL1        0.1003
     25 C         139.3837  144.1912  155.5462 C.ar    1  UNL1        0.0367
     26 C         139.7599  145.0922  156.6849 C.ar    1  UNL1        0.0020
     27 C         139.2632  142.9519  154.7099 C.ar    1  UNL1        0.0865
     28 N         138.5270  143.9264  153.8389 N.ar    1  UNL1       -0.2239
     29 C         137.9406  143.4725  152.5351 C.ar    1  UNL1        0.1993
     30 N         138.0902  142.0442  152.1021 N.ar    1  UNL1       -0.2173
     31 C         138.8264  141.0697  152.9731 C.ar    1  UNL1        0.1139
     32 S         139.2388  139.6281  153.0169 S.2     1  UNL1       -0.0679
     33 C         140.4201  138.7911  154.7750 C.ar    1  UNL1        0.0325
     34 C         139.8147  140.0785  154.2995 C.ar    1  UNL1        0.0101
     35 C         139.4129  141.5235  154.2769 C.ar    1  UNL1        0.0421
     36 H         143.6440  136.8334  159.7348 H       1  UNL1        0.1739
     37 H         141.9294  145.7673  161.0108 H       1  UNL1        0.1501
     38 C         144.0996  133.5584  157.9672 C.3     1  UNL1        0.2543
     39 O         143.5459  134.8217  158.5568 O.3     1  UNL1       -0.4553
@<TRIPOS>BOND
     1    38    39    1
     2    39     1    1
     3     1     2   ar
     4     2     3   ar
     5     3     4   ar
     6     4     5   ar
     7     5     6   ar
     8     6     7    1
     9     7     8    1
    10     8     9    2
    11     8    10    2
    12     8    11    1
    13    11    12   ar
    14    12    13   ar
    15    13    14   ar
    16    14    15   ar
    17    15    16   ar
    18    15    17    1
    19    17    18    2
    20    17    19   am
    21    19    20    1
    22    20    21    1
    23    21    22   ar
    24    22    23   ar
    25    23    24   ar
    26    24    25   ar
    27    25    26   ar
    28    25    27    1
    29    27    28   ar
    30    28    29   ar
    31    29    30   ar
    32    30    31   ar
    33    31    32   ar
    34    32    33   ar
    35    33    34   ar
    36    34    35   ar
    37     6     1   ar
    38    16    11   ar
    39    26    21   ar
    40    35    27   ar
    41    33     4    1
    42    35    31   ar
    43     7    36    1
    44    19    37    1
@<TRIPOS>MOLECULE
*****
 39 44 0 0 0
SMALL
GASTEIGER

@<TRIPOS>ATOM
      1 C         140.3078  145.6772  154.8032 C.ar    1  UNL1        0.2400
      2 N         139.9116  146.8347  155.6711 N.ar    1  UNL1       -0.2090
      3 C         139.9154  146.6888  157.1639 C.ar    1  UNL1        0.1026
      4 C         140.2617  145.5240  158.1128 C.ar    1  UNL1        0.0267
      5 C         140.4154  145.1751  156.6620 C.ar    1  UNL1        0.0226
      6 C         140.7079  144.3737  155.4283 C.ar    1  UNL1        0.1178
      7 N         141.1042  143.2161  154.5605 N.pl3   1  UNL1       -0.2104
      8 S         141.5563  141.8422  154.1633 S.O2    1  UNL1        0.0737
      9 O         141.8057  141.1833  152.8391 O.2     1  UNL1       -0.1499
     10 O         141.3004  142.7449  152.9930 O.2     1  UNL1       -0.1499
     11 C         142.0098  140.4174  154.2845 C.ar    1  UNL1        0.1253
     12 C         142.3024  139.6160  153.0509 C.ar    1  UNL1        0.0202
     13 C         142.7558  138.1913  153.1721 C.ar    1  UNL1        0.0015
     14 C         142.9167  137.5682  154.5270 C.ar    1  UNL1        0.0046
     15 C         142.6241  138.3697  155.7607 C.ar    1  UNL1        0.0547
     16 C         142.1707  139.7943  155.6395 C.ar    1  UNL1        0.0247
     17 C         142.8693  137.4656  157.3181 C.2     1  UNL1        0.2461
     18 O         143.3214  136.0916  156.9209 O.2     1  UNL1       -0.2701
     19 N         142.8731  137.3197  158.8109 N.am    1  UNL1       -0.2969
     20 C         142.7195  137.6684  160.2617 C.3     1  UNL1        0.1181
     21 C         142.4269  138.4700  161.4954 C.ar    1  UNL1        0.0167
     22 C         142.4855  138.1522  163.0029 C.ar    1  UNL1        0.0962
     23 N         142.1929  138.9537  164.2366 N.ar    1  UNL1       -0.2425
     24 C         141.7394  140.3784  164.1154 C.ar    1  UNL1        0.1003
     25 C         141.5786  141.0015  162.7604 C.ar    1  UNL1        0.0367
     26 C         142.0307  139.6275  162.3632 C.ar    1  UNL1        0.0020
     27 C         141.1251  142.4261  162.6392 C.ar    1  UNL1        0.0865
     28 N         141.1289  142.2802  164.1321 N.ar    1  UNL1       -0.2239
     29 C         140.7327  143.4378  164.9999 C.ar    1  UNL1        0.1993
     30 N         140.3326  144.7413  164.3749 N.ar    1  UNL1       -0.2173
     31 C         140.3287  144.8872  162.8819 C.ar    1  UNL1        0.1139
     32 S         140.0359  145.8963  161.8114 S.2     1  UNL1       -0.0679
     33 C         140.2656  145.3780  159.6056 C.ar    1  UNL1        0.0325
     34 C         140.4265  144.7548  160.9606 C.ar    1  UNL1        0.0101
     35 C         140.7250  143.7297  162.0141 C.ar    1  UNL1        0.0421
     36 H         140.9986  143.6251  153.6713 H       1  UNL1        0.1739
     37 H         143.1707  136.3847  158.8905 H       1  UNL1        0.1501
     38 C         141.4477  146.5058  152.6206 C.3     1  UNL1        0.2543
     39 O         140.3040  145.8232  153.3104 O.3     1  UNL1       -0.4553
@<TRIPOS>BOND
     1    38    39    1
     2    39     1    1
     3     1     2   ar
     4     2     3   ar
     5     3     4   ar
     6     4     5   ar
     7     5     6   ar
     8     6     7    1
     9     7     8    1
    10     8     9    2
    11     8    10    2
    12     8    11    1
    13    11    12   ar
    14    12    13   ar
    15    13    14   ar
    16    14    15   ar
    17    15    16   ar
    18    15    17    1
    19    17    18    2
    20    17    19   am
    21    19    20    1
    22    20    21    1
    23    21    22   ar
    24    22    23   ar
    25    23    24   ar
    26    24    25   ar
    27    25    26   ar
    28    25    27    1
    29    27    28   ar
    30    28    29   ar
    31    29    30   ar
    32    30    31   ar
    33    31    32   ar
    34    32    33   ar
    35    33    34   ar
    36    34    35   ar
    37     6     1   ar
    38    16    11   ar
    39    26    21   ar
    40    35    27   ar
    41    33     4    1
    42    35    31   ar
    43     7    36    1
    44    19    37    1
@<TRIPOS>MOLECULE
*****
 39 44 0 0 0
SMALL
GASTEIGER

@<TRIPOS>ATOM
      1 C         143.6225  142.5156  160.7755 C.ar    1  UNL1        0.2400
      2 N         144.3188  141.2665  161.2280 N.ar    1  UNL1       -0.2090
      3 C         144.1012  139.9779  160.4917 C.ar    1  UNL1        0.1026
      4 C         143.2529  139.5903  159.2640 C.ar    1  UNL1        0.0267
      5 C         143.1394  141.0401  159.6317 C.ar    1  UNL1        0.0226
      6 C         142.7085  142.4761  159.5867 C.ar    1  UNL1        0.1178
      7 N         142.0122  143.7253  159.1342 N.pl3   1  UNL1       -0.2104
      8 S         141.1344  144.6368  158.3288 S.O2    1  UNL1        0.0737
      9 O         140.8053  146.0972  158.4232 O.2     1  UNL1       -0.1499
     10 O         141.8271  145.3297  159.4647 O.2     1  UNL1       -0.1499
     11 C         140.1811  145.1009  157.2677 C.ar    1  UNL1        0.1253
     12 C         139.7502  146.5369  157.2227 C.ar    1  UNL1        0.0202
     13 C         138.7968  147.0009  156.1616 C.ar    1  UNL1        0.0015
     14 C         138.2744  146.0288  155.1457 C.ar    1  UNL1        0.0046
     15 C         138.7053  144.5928  155.1908 C.ar    1  UNL1        0.0547
     16 C         139.6586  144.1288  156.2518 C.ar    1  UNL1        0.0247
     17 C         137.9804  143.5511  153.8899 C.2     1  UNL1        0.2461
     18 O         137.1026  144.4626  153.0846 O.2     1  UNL1       -0.2701
     19 N         137.7629  142.2624  153.1537 N.am    1  UNL1       -0.2969
     20 C         137.8763  140.8127  152.7859 C.3     1  UNL1        0.1181
     21 C         138.3073  139.3766  152.8310 C.ar    1  UNL1        0.0167
     22 C         137.9747  138.1439  151.9668 C.ar    1  UNL1        0.0962
     23 N         138.4056  136.7078  152.0119 N.ar    1  UNL1       -0.2425
     24 C         139.3589  136.2438  153.0729 C.ar    1  UNL1        0.1003
     25 C         139.8814  137.2159  154.0889 C.ar    1  UNL1        0.0367
     26 C         139.0036  138.1274  153.2835 C.ar    1  UNL1        0.0020
     27 C         140.8347  136.7519  155.1499 C.ar    1  UNL1        0.0865
     28 N         140.6171  135.4632  154.4136 N.ar    1  UNL1       -0.2239
     29 C         141.3135  134.2141  154.8662 C.ar    1  UNL1        0.1993
     30 N         142.2274  134.2535  156.0549 N.ar    1  UNL1       -0.2173
     31 C         142.4450  135.5423  156.7912 C.ar    1  UNL1        0.1139
     32 S         143.2000  136.1023  157.9601 S.2     1  UNL1       -0.0679
     33 C         143.0353  138.3017  158.5277 C.ar    1  UNL1        0.0325
     34 C         142.5129  137.3296  157.5118 C.ar    1  UNL1        0.0101
     35 C         141.7487  136.7914  156.3387 C.ar    1  UNL1        0.0421
     36 H         142.3551  144.3633  159.8010 H       1  UNL1        0.1739
     37 H         137.1372  142.5670  152.4573 H       1  UNL1        0.1501
     38 C         143.0279  144.1164  162.7335 C.3     1  UNL1        0.2543
     39 O         143.8401  143.8042  161.5117 O.3     1  UNL1       -0.4553
@<TRIPOS>BOND
     1    38    39    1
     2    39     1    1
     3     1     2   ar
     4     2     3   ar
     5     3     4   ar
     6     4     5   ar
     7     5     6   ar
     8     6     7    1
     9     7     8    1
    10     8     9    2
    11     8    10    2
    12     8    11    1
    13    11    12   ar
    14    12    13   ar
    15    13    14   ar
    16    14    15   ar
    17    15    16   ar
    18    15    17    1
    19    17    18    2
    20    17    19   am
    21    19    20    1
    22    20    21    1
    23    21    22   ar
    24    22    23   ar
    25    23    24   ar
    26    24    25   ar
    27    25    26   ar
    28    25    27    1
    29    27    28   ar
    30    28    29   ar
    31    29    30   ar
    32    30    31   ar
    33    31    32   ar
    34    32    33   ar
    35    33    34   ar
    36    34    35   ar
    37     6     1   ar
    38    16    11   ar
    39    26    21   ar
    40    35    27   ar
    41    33     4    1
    42    35    31   ar
    43     7    36    1
    44    19    37    1
@<TRIPOS>MOLECULE
*****
 39 44 0 0 0
SMALL
GASTEIGER

@<TRIPOS>ATOM
      1 C         142.7043  136.9995  155.4342 C.ar    1  UNL1        0.2400
      2 N         142.9882  135.9989  156.5150 N.ar    1  UNL1       -0.2090
      3 C         142.8808  136.4007  157.9561 C.ar    1  UNL1        0.1026
      4 C         142.5139  137.7212  158.6625 C.ar    1  UNL1        0.0267
      5 C         142.4814  137.8181  157.1660 C.ar    1  UNL1        0.0226
      6 C         142.3131  138.4021  155.7946 C.ar    1  UNL1        0.1178
      7 N         142.0293  139.4027  154.7139 N.pl3   1  UNL1       -0.2104
      8 S         141.6641  140.6994  154.0541 S.O2    1  UNL1        0.0737
      9 O         141.5396  141.1261  152.6214 O.2     1  UNL1       -0.1499
     10 O         141.9679  139.6012  153.0785 O.2     1  UNL1       -0.1499
     11 C         141.2616  142.1356  153.8947 C.ar    1  UNL1        0.1253
     12 C         141.0933  142.7196  152.5234 C.ar    1  UNL1        0.0202
     13 C         140.6909  144.1558  152.3641 C.ar    1  UNL1        0.0015
     14 C         140.4567  145.0079  153.5761 C.ar    1  UNL1        0.0046
     15 C         140.6251  144.4239  154.9474 C.ar    1  UNL1        0.0547
     16 C         141.0275  142.9878  155.1067 C.ar    1  UNL1        0.0247
     17 C         140.3036  145.5900  156.3038 C.2     1  UNL1        0.2461
     18 O         139.9384  146.8866  155.6440 O.2     1  UNL1       -0.2701
     19 N         140.1963  145.9918  157.7450 N.am    1  UNL1       -0.2969
     20 C         140.2288  145.8949  159.2415 C.3     1  UNL1        0.1181
     21 C         140.3971  145.3108  160.6129 C.ar    1  UNL1        0.0167
     22 C         140.2412  145.8860  162.0348 C.ar    1  UNL1        0.0962
     23 N         140.4096  145.3019  163.4062 N.ar    1  UNL1       -0.2425
     24 C         140.8120  143.8657  163.5655 C.ar    1  UNL1        0.1003
     25 C         141.0461  143.0136  162.3535 C.ar    1  UNL1        0.0367
     26 C         140.6810  144.3102  161.6936 C.ar    1  UNL1        0.0020
     27 C         141.4486  141.5774  162.5128 C.ar    1  UNL1        0.0865
     28 N         141.3413  141.9792  163.9540 N.ar    1  UNL1       -0.2239
     29 C         141.6251  140.9785  165.0347 C.ar    1  UNL1        0.1993
     30 N         142.0163  139.5760  164.6744 N.ar    1  UNL1       -0.2173
     31 C         142.1236  139.1742  163.2331 C.ar    1  UNL1        0.1139
     32 S         142.4526  137.9875  162.3766 S.2     1  UNL1       -0.0679
     33 C         142.4066  138.1230  160.1037 C.ar    1  UNL1        0.0325
     34 C         142.1724  138.9752  161.3157 C.ar    1  UNL1        0.0101
     35 C         141.8397  140.1748  162.1523 C.ar    1  UNL1        0.0421
     36 H         142.1829  138.8434  153.9184 H       1  UNL1        0.1739
     37 H         139.9322  146.9344  157.6404 H       1  UNL1        0.1501
     38 C         141.7288  135.7739  153.3615 C.3     1  UNL1        0.2543
     39 O         142.8116  136.5977  153.9931 O.3     1  UNL1       -0.4553
@<TRIPOS>BOND
     1    38    39    1
     2    39     1    1
     3     1     2   ar
     4     2     3   ar
     5     3     4   ar
     6     4     5   ar
     7     5     6   ar
     8     6     7    1
     9     7     8    1
    10     8     9    2
    11     8    10    2
    12     8    11    1
    13    11    12   ar
    14    12    13   ar
    15    13    14   ar
    16    14    15   ar
    17    15    16   ar
    18    15    17    1
    19    17    18    2
    20    17    19   am
    21    19    20    1
    22    20    21    1
    23    21    22   ar
    24    22    23   ar
    25    23    24   ar
    26    24    25   ar
    27    25    26   ar
    28    25    27    1
    29    27    28   ar
    30    28    29   ar
    31    29    30   ar
    32    30    31   ar
    33    31    32   ar
    34    32    33   ar
    35    33    34   ar
    36    34    35   ar
    37     6     1   ar
    38    16    11   ar
    39    26    21   ar
    40    35    27   ar
    41    33     4    1
    42    35    31   ar
    43     7    36    1
    44    19    37    1
@<TRIPOS>MOLECULE
*****
 39 44 0 0 0
SMALL
GASTEIGER

@<TRIPOS>ATOM
      1 C         137.9682  143.7842  153.8217 C.ar    1  UNL1        0.2400
      2 N         137.8799  145.0930  154.5492 N.ar    1  UNL1       -0.2090
      3 C         138.5134  145.2442  155.9004 C.ar    1  UNL1        0.1026
      4 C         139.3100  144.2869  156.8093 C.ar    1  UNL1        0.0267
      5 C         138.8747  143.6578  155.5190 C.ar    1  UNL1        0.0226
      6 C         138.6901  142.6266  154.4455 C.ar    1  UNL1        0.1178
      7 N         138.7784  141.3178  153.7180 N.pl3   1  UNL1       -0.2104
      8 S         139.1291  139.8893  153.4244 S.O2    1  UNL1        0.0737
      9 O         138.8569  138.9804  152.2625 O.2     1  UNL1       -0.1499
     10 O         138.3428  140.5453  152.3283 O.2     1  UNL1       -0.1499
     11 C         139.6998  138.5132  153.6000 C.ar    1  UNL1        0.1253
     12 C         139.5152  137.4820  152.5264 C.ar    1  UNL1        0.0202
     13 C         140.0859  136.1060  152.7021 C.ar    1  UNL1        0.0015
     14 C         140.8411  135.7612  153.9513 C.ar    1  UNL1        0.0046
     15 C         141.0258  136.7923  155.0249 C.ar    1  UNL1        0.0547
     16 C         140.4551  138.1683  154.8492 C.ar    1  UNL1        0.0247
     17 C         141.9629  136.2114  156.4696 C.2     1  UNL1        0.2461
     18 O         142.3136  134.7828  156.1760 O.2     1  UNL1       -0.2701
     19 N         142.5964  136.3627  157.8208 N.am    1  UNL1       -0.2969
     20 C         143.0317  136.9918  159.1110 C.3     1  UNL1        0.1181
     21 C         143.2163  138.0230  160.1846 C.ar    1  UNL1        0.0167
     22 C         143.9187  138.0083  161.5570 C.ar    1  UNL1        0.0962
     23 N         144.1033  139.0395  162.6306 N.ar    1  UNL1       -0.2425
     24 C         143.5326  140.4155  162.4549 C.ar    1  UNL1        0.1003
     25 C         142.7773  140.7604  161.2057 C.ar    1  UNL1        0.0367
     26 C         143.1280  139.3318  160.9121 C.ar    1  UNL1        0.0020
     27 C         142.2066  142.1364  161.0300 C.ar    1  UNL1        0.0865
     28 N         142.8402  142.2877  162.3813 N.ar    1  UNL1       -0.2239
     29 C         142.7518  143.5965  163.1088 C.ar    1  UNL1        0.1993
     30 N         142.0299  144.7540  162.4851 N.ar    1  UNL1       -0.2173
     31 C         141.3964  144.6027  161.1338 C.ar    1  UNL1        0.1139
     32 S         140.6098  145.3830  160.1227 S.2     1  UNL1       -0.0679
     33 C         139.9435  144.4382  158.1605 C.ar    1  UNL1        0.0325
     34 C         140.6988  144.0933  159.4097 C.ar    1  UNL1        0.0101
     35 C         141.4848  143.2939  160.4063 C.ar    1  UNL1        0.0421
     36 H         138.2827  141.5442  152.8980 H       1  UNL1        0.1739
     37 H         142.9709  135.4596  157.9360 H       1  UNL1        0.1501
     38 C         135.8688  143.3358  152.3584 C.3     1  UNL1        0.2543
     39 O         137.3347  143.6329  152.4705 O.3     1  UNL1       -0.4553
@<TRIPOS>BOND
     1    38    39    1
     2    39     1    1
     3     1     2   ar
     4     2     3   ar
     5     3     4   ar
     6     4     5   ar
     7     5     6   ar
     8     6     7    1
     9     7     8    1
    10     8     9    2
    11     8    10    2
    12     8    11    1
    13    11    12   ar
    14    12    13   ar
    15    13    14   ar
    16    14    15   ar
    17    15    16   ar
    18    15    17    1
    19    17    18    2
    20    17    19   am
    21    19    20    1
    22    20    21    1
    23    21    22   ar
    24    22    23   ar
    25    23    24   ar
    26    24    25   ar
    27    25    26   ar
    28    25    27    1
    29    27    28   ar
    30    28    29   ar
    31    29    30   ar
    32    30    31   ar
    33    31    32   ar
    34    32    33   ar
    35    33    34   ar
    36    34    35   ar
    37     6     1   ar
    38    16    11   ar
    39    26    21   ar
    40    35    27   ar
    41    33     4    1
    42    35    31   ar
    43     7    36    1
    44    19    37    1
@<TRIPOS>MOLECULE
*****
 39 44 0 0 0
SMALL
GASTEIGER

@<TRIPOS>ATOM
      1 C         142.3280  134.4341  154.7724 C.ar    1  UNL1        0.2400
      2 N         143.3757  133.9774  155.7439 N.ar    1  UNL1       -0.2090
      3 C         143.5863  134.7259  157.0265 C.ar    1  UNL1        0.1026
      4 C         142.9219  135.9712  157.6470 C.ar    1  UNL1        0.0267
      5 C         142.3518  135.5960  156.3113 C.ar    1  UNL1        0.0226
      6 C         141.4909  135.6394  155.0837 C.ar    1  UNL1        0.1178
      7 N         140.4433  136.0961  154.1122 N.pl3   1  UNL1       -0.2104
      8 S         139.3351  136.9111  153.5141 S.O2    1  UNL1        0.0737
      9 O         138.5611  136.8130  152.2330 O.2     1  UNL1       -0.1499
     10 O         139.7570  135.7584  152.6518 O.2     1  UNL1       -0.1499
     11 C         138.3000  137.9860  153.3615 C.ar    1  UNL1        0.1253
     12 C         137.4392  138.0294  152.1339 C.ar    1  UNL1        0.0202
     13 C         136.4042  139.1043  151.9813 C.ar    1  UNL1        0.0015
     14 C         136.2300  140.1358  153.0563 C.ar    1  UNL1        0.0046
     15 C         137.0909  140.0924  154.2839 C.ar    1  UNL1        0.0547
     16 C         138.1258  139.0175  154.4365 C.ar    1  UNL1        0.0247
     17 C         136.7508  141.4129  155.4853 C.2     1  UNL1        0.2461
     18 O         135.6426  142.2279  154.8873 O.2     1  UNL1       -0.2701
     19 N         136.9616  142.1613  156.7681 N.am    1  UNL1       -0.2969
     20 C         137.5317  142.5365  158.1038 C.3     1  UNL1        0.1181
     21 C         138.3926  142.4931  159.3314 C.ar    1  UNL1        0.0167
     22 C         138.4784  143.3713  160.5957 C.ar    1  UNL1        0.0962
     23 N         139.3393  143.3279  161.8234 N.ar    1  UNL1       -0.2425
     24 C         140.3743  142.2530  161.9760 C.ar    1  UNL1        0.1003
     25 C         140.5484  141.2214  160.9010 C.ar    1  UNL1        0.0367
     26 C         139.4403  142.0364  160.3029 C.ar    1  UNL1        0.0020
     27 C         141.5834  140.1465  161.0536 C.ar    1  UNL1        0.0865
     28 N         141.7942  140.8951  162.3364 N.ar    1  UNL1       -0.2239
     29 C         142.8419  140.4383  163.3078 C.ar    1  UNL1        0.1993
     30 N         143.6789  139.2331  162.9966 N.ar    1  UNL1       -0.2173
     31 C         143.4681  138.4846  161.7138 C.ar    1  UNL1        0.1139
     32 S         143.9906  137.2987  160.9584 S.2     1  UNL1       -0.0679
     33 C         143.1326  136.7197  158.9297 C.ar    1  UNL1        0.0325
     34 C         142.9585  137.7512  160.0047 C.ar    1  UNL1        0.0101
     35 C         142.4205  138.9413  160.7423 C.ar    1  UNL1        0.0421
     36 H         140.5576  135.4190  153.4067 H       1  UNL1        0.1739
     37 H         136.2823  142.8668  156.6679 H       1  UNL1        0.1501
     38 C         141.1246  132.5627  153.4309 C.3     1  UNL1        0.2543
     39 O         142.1173  133.6856  153.4897 O.3     1  UNL1       -0.4553
@<TRIPOS>BOND
     1    38    39    1
     2    39     1    1
     3     1     2   ar
     4     2     3   ar
     5     3     4   ar
     6     4     5   ar
     7     5     6   ar
     8     6     7    1
     9     7     8    1
    10     8     9    2
    11     8    10    2
    12     8    11    1
    13    11    12   ar
    14    12    13   ar
    15    13    14   ar
    16    14    15   ar
    17    15    16   ar
    18    15    17    1
    19    17    18    2
    20    17    19   am
    21    19    20    1
    22    20    21    1
    23    21    22   ar
    24    22    23   ar
    25    23    24   ar
    26    24    25   ar
    27    25    26   ar
    28    25    27    1
    29    27    28   ar
    30    28    29   ar
    31    29    30   ar
    32    30    31   ar
    33    31    32   ar
    34    32    33   ar
    35    33    34   ar
    36    34    35   ar
    37     6     1   ar
    38    16    11   ar
    39    26    21   ar
    40    35    27   ar
    41    33     4    1
    42    35    31   ar
    43     7    36    1
    44    19    37    1
@<TRIPOS>MOLECULE
*****
 39 44 0 0 0
SMALL
GASTEIGER

@<TRIPOS>ATOM
      1 C         143.7811  140.9113  162.1548 C.ar    1  UNL1        0.2400
      2 N         144.2798  139.5575  162.5653 N.ar    1  UNL1       -0.2090
      3 C         144.1009  138.3830  161.6497 C.ar    1  UNL1        0.1026
      4 C         143.4672  138.2154  160.2542 C.ar    1  UNL1        0.0267
      5 C         143.4030  139.6219  160.7717 C.ar    1  UNL1        0.0226
      6 C         143.1036  141.0906  160.8286 C.ar    1  UNL1        0.1178
      7 N         142.6049  142.4444  160.4181 N.pl3   1  UNL1       -0.2104
      8 S         141.9672  143.5200  159.5897 S.O2    1  UNL1        0.0737
      9 O         141.7434  144.9877  159.8036 O.2     1  UNL1       -0.1499
     10 O         142.4898  144.0150  160.9057 O.2     1  UNL1       -0.1499
     11 C         141.2673  144.1877  158.4432 C.ar    1  UNL1        0.1253
     12 C         140.9678  145.6564  158.5001 C.ar    1  UNL1        0.0202
     13 C         140.2680  146.3241  157.3537 C.ar    1  UNL1        0.0015
     14 C         139.8676  145.5231  156.1503 C.ar    1  UNL1        0.0046
     15 C         140.1671  144.0544  156.0933 C.ar    1  UNL1        0.0547
     16 C         140.8669  143.3867  157.2398 C.ar    1  UNL1        0.0247
     17 C         139.6158  143.2352  154.5677 C.2     1  UNL1        0.2461
     18 O         138.9781  144.3108  153.7392 O.2     1  UNL1       -0.2701
     19 N         139.4369  142.0606  153.6521 N.am    1  UNL1       -0.2969
     20 C         139.5011  140.6542  153.1345 C.3     1  UNL1        0.1181
     21 C         139.8006  139.1854  153.0776 C.ar    1  UNL1        0.0167
     22 C         139.5373  138.0915  152.0236 C.ar    1  UNL1        0.0962
     23 N         139.8368  136.6227  151.9668 N.ar    1  UNL1       -0.2425
     24 C         140.5366  135.9551  153.1132 C.ar    1  UNL1        0.1003
     25 C         140.9370  136.7560  154.3166 C.ar    1  UNL1        0.0367
     26 C         140.2992  137.8316  153.4881 C.ar    1  UNL1        0.0020
     27 C         141.6368  136.0884  155.4630 C.ar    1  UNL1        0.0865
     28 N         141.4579  134.9137  154.5473 N.ar    1  UNL1       -0.2239
     29 C         141.9566  133.5600  154.9579 C.ar    1  UNL1        0.1993
     30 N         142.6342  133.3807  156.2841 N.ar    1  UNL1       -0.2173
     31 C         142.8131  134.5553  157.1997 C.ar    1  UNL1        0.1139
     32 S         143.3801  134.9090  158.5427 S.2     1  UNL1       -0.0679
     33 C         143.2883  137.0409  159.3385 C.ar    1  UNL1        0.0325
     34 C         142.8879  136.2399  158.1352 C.ar    1  UNL1        0.0101
     35 C         142.3144  135.9091  156.7892 C.ar    1  UNL1        0.0421
     36 H         142.8677  142.9701  161.2079 H       1  UNL1        0.1739
     37 H         138.9776  142.4988  152.8996 H       1  UNL1        0.1501
     38 C         145.1936  142.1962  163.9166 C.3     1  UNL1        0.2543
     39 O         143.9600  142.0858  163.0705 O.3     1  UNL1       -0.4553
@<TRIPOS>BOND
     1    38    39    1
     2    39     1    1
     3     1     2   ar
     4     2     3   ar
     5     3     4   ar
     6     4     5   ar
     7     5     6   ar
     8     6     7    1
     9     7     8    1
    10     8     9    2
    11     8    10    2
    12     8    11    1
    13    11    12   ar
    14    12    13   ar
    15    13    14   ar
    16    14    15   ar
    17    15    16   ar
    18    15    17    1
    19    17    18    2
    20    17    19   am
    21    19    20    1
    22    20    21    1
    23    21    22   ar
    24    22    23   ar
    25    23    24   ar
    26    24    25   ar
    27    25    26   ar
    28    25    27    1
    29    27    28   ar
    30    28    29   ar
    31    29    30   ar
    32    30    31   ar
    33    31    32   ar
    34    32    33   ar
    35    33    34   ar
    36    34    35   ar
    37     6     1   ar
    38    16    11   ar
    39    26    21   ar
    40    35    27   ar
    41    33     4    1
    42    35    31   ar
    43     7    36    1
    44    19    37    1
@<TRIPOS>MOLECULE
*****
 39 44 0 0 0
SMALL
GASTEIGER

@<TRIPOS>ATOM
      1 C         146.2411  142.6796  155.4356 C.ar    1  UNL1        0.2400
      2 N         147.2528  142.9474  156.5102 N.ar    1  UNL1       -0.2090
      3 C         146.8591  142.8430  157.9538 C.ar    1  UNL1        0.1026
      4 C         145.5384  142.4932  158.6683 C.ar    1  UNL1        0.0267
      5 C         145.4310  142.4649  157.1724 C.ar    1  UNL1        0.0226
      6 C         144.8356  142.3074  155.8047 C.ar    1  UNL1        0.1178
      7 N         143.8239  142.0396  154.7301 N.pl3   1  UNL1       -0.2104
      8 S         142.5179  141.6938  154.0783 S.O2    1  UNL1        0.0737
      9 O         142.0800  141.5780  152.6484 O.2     1  UNL1       -0.1499
     10 O         143.6137  141.9841  153.0959 O.2     1  UNL1       -0.1499
     11 C         141.0752  141.3118  153.9278 C.ar    1  UNL1        0.1253
     12 C         140.4798  141.1543  152.5601 C.ar    1  UNL1        0.0202
     13 C         139.0371  140.7722  152.4097 C.ar    1  UNL1        0.0015
     14 C         138.1898  140.5478  153.6270 C.ar    1  UNL1        0.0046
     15 C         138.7852  140.7053  154.9947 C.ar    1  UNL1        0.0547
     16 C         140.2279  141.0873  155.1451 C.ar    1  UNL1        0.0247
     17 C         137.6238  140.3976  156.3582 C.2     1  UNL1        0.2461
     18 O         136.3178  140.0519  155.7064 O.2     1  UNL1       -0.2701
     19 N         137.2302  140.2932  157.8019 N.am    1  UNL1       -0.2969
     20 C         137.3374  140.3215  159.2977 C.3     1  UNL1        0.1181
     21 C         137.9329  140.4791  160.6655 C.ar    1  UNL1        0.0167
     22 C         137.3652  140.3286  162.0910 C.ar    1  UNL1        0.0962
     23 N         137.9607  140.4861  163.4587 N.ar    1  UNL1       -0.2425
     24 C         139.4033  140.8682  163.6091 C.ar    1  UNL1        0.1003
     25 C         140.2506  141.0926  162.3919 C.ar    1  UNL1        0.0367
     26 C         138.9446  140.7469  161.7401 C.ar    1  UNL1        0.0020
     27 C         141.6933  141.4747  162.5423 C.ar    1  UNL1        0.0865
     28 N         141.2996  141.3703  163.9860 N.ar    1  UNL1       -0.2239
     29 C         142.3114  141.6381  165.0605 C.ar    1  UNL1        0.1993
     30 N         143.7168  142.0103  164.6915 N.ar    1  UNL1       -0.2173
     31 C         144.1105  142.1147  163.2478 C.ar    1  UNL1        0.1139
     32 S         145.2959  142.4287  162.3839 S.2     1  UNL1       -0.0679
     33 C         145.1446  142.3888  160.1119 C.ar    1  UNL1        0.0325
     34 C         144.2974  142.1643  161.3291 C.ar    1  UNL1        0.0101
     35 C         143.0988  141.8469  162.1732 C.ar    1  UNL1        0.0421
     36 H         144.3800  142.1869  153.9312 H       1  UNL1        0.1739
     37 H         136.2833  140.0425  157.7031 H       1  UNL1        0.1501
     38 C         147.1991  141.5903  153.2802 C.3     1  UNL1        0.2543
     39 O         146.6348  142.7840  153.9920 O.3     1  UNL1       -0.4553
@<TRIPOS>BOND
     1    38    39    1
     2    39     1    1
     3     1     2   ar
     4     2     3   ar
     5     3     4   ar
     6     4     5   ar
     7     5     6   ar
     8     6     7    1
     9     7     8    1
    10     8     9    2
    11     8    10    2
    12     8    11    1
    13    11    12   ar
    14    12    13   ar
    15    13    14   ar
    16    14    15   ar
    17    15    16   ar
    18    15    17    1
    19    17    18    2
    20    17    19   am
    21    19    20    1
    22    20    21    1
    23    21    22   ar
    24    22    23   ar
    25    23    24   ar
    26    24    25   ar
    27    25    26   ar
    28    25    27    1
    29    27    28   ar
    30    28    29   ar
    31    29    30   ar
    32    30    31   ar
    33    31    32   ar
    34    32    33   ar
    35    33    34   ar
    36    34    35   ar
    37     6     1   ar
    38    16    11   ar
    39    26    21   ar
    40    35    27   ar
    41    33     4    1
    42    35    31   ar
    43     7    36    1
    44    19    37    1
@<TRIPOS>MOLECULE
*****
 39 44 0 0 0
SMALL
GASTEIGER

@<TRIPOS>ATOM
      1 C         138.7794  141.7860  153.4803 C.ar    1  UNL1        0.2400
      2 N         138.4442  143.2093  153.8145 N.ar    1  UNL1       -0.2090
      3 C         138.8491  143.7839  155.1396 C.ar    1  UNL1        0.1026
      4 C         139.5987  143.2091  156.3582 C.ar    1  UNL1        0.0267
      5 C         139.4306  142.2205  155.2426 C.ar    1  UNL1        0.0226
      6 C         139.5195  140.9372  154.4712 C.ar    1  UNL1        0.1178
      7 N         139.8547  139.5139  154.1369 N.pl3   1  UNL1       -0.2104
      8 S         140.3959  138.1222  154.2802 S.O2    1  UNL1        0.0737
      9 O         140.3988  136.9213  153.3814 O.2     1  UNL1       -0.1499
     10 O         139.7164  138.3630  152.9647 O.2     1  UNL1       -0.1499
     11 C         141.0776  136.9301  154.8836 C.ar    1  UNL1        0.1253
     12 C         141.1665  135.6467  154.1122 C.ar    1  UNL1        0.0202
     13 C         141.8482  134.4547  154.7157 C.ar    1  UNL1        0.0015
     14 C         142.4410  134.5459  156.0906 C.ar    1  UNL1        0.0046
     15 C         142.3521  135.8293  156.8620 C.ar    1  UNL1        0.0547
     16 C         141.6704  137.0213  156.2585 C.ar    1  UNL1        0.0247
     17 C         143.1197  135.7695  158.5082 C.2     1  UNL1        0.2461
     18 O         143.6608  134.3779  158.6514 O.2     1  UNL1       -0.2701
     19 N         143.5246  136.3442  159.8333 N.am    1  UNL1       -0.2969
     20 C         143.6927  137.3327  160.9488 C.3     1  UNL1        0.1181
     21 C         143.6038  138.6161  161.7202 C.ar    1  UNL1        0.0167
     22 C         144.0909  139.0468  163.1181 C.ar    1  UNL1        0.0962
     23 N         144.0020  140.3303  163.8895 N.ar    1  UNL1       -0.2425
     24 C         143.3203  141.5223  163.2861 C.ar    1  UNL1        0.1003
     25 C         142.7275  141.4311  161.9112 C.ar    1  UNL1        0.0367
     26 C         143.2686  140.0394  162.0545 C.ar    1  UNL1        0.0020
     27 C         142.0457  142.6231  161.3078 C.ar    1  UNL1        0.0865
     28 N         142.4506  143.1978  162.6329 N.ar    1  UNL1       -0.2239
     29 C         142.1154  144.6211  162.9671 C.ar    1  UNL1        0.1993
     30 N         141.3753  145.4699  161.9763 N.ar    1  UNL1       -0.2173
     31 C         140.9704  144.8952  160.6511 C.ar    1  UNL1        0.1139
     32 S         140.2647  145.2763  159.3835 S.2     1  UNL1       -0.0679
     33 C         140.0036  143.7837  157.6832 C.ar    1  UNL1        0.0325
     34 C         140.5964  143.8749  159.0581 C.ar    1  UNL1        0.0101
     35 C         141.3056  143.4719  160.3169 C.ar    1  UNL1        0.0421
     36 H         139.4657  139.4540  153.2345 H       1  UNL1        0.1739
     37 H         143.9720  135.5617  160.2293 H       1  UNL1        0.1501
     38 C         136.9998  140.6394  151.9742 C.3     1  UNL1        0.2543
     39 O         138.3745  141.2114  152.1552 O.3     1  UNL1       -0.4553
@<TRIPOS>BOND
     1    38    39    1
     2    39     1    1
     3     1     2   ar
     4     2     3   ar
     5     3     4   ar
     6     4     5   ar
     7     5     6   ar
     8     6     7    1
     9     7     8    1
    10     8     9    2
    11     8    10    2
    12     8    11    1
    13    11    12   ar
    14    12    13   ar
    15    13    14   ar
    16    14    15   ar
    17    15    16   ar
    18    15    17    1
    19    17    18    2
    20    17    19   am
    21    19    20    1
    22    20    21    1
    23    21    22   ar
    24    22    23   ar
    25    23    24   ar
    26    24    25   ar
    27    25    26   ar
    28    25    27    1
    29    27    28   ar
    30    28    29   ar
    31    29    30   ar
    32    30    31   ar
    33    31    32   ar
    34    32    33   ar
    35    33    34   ar
    36    34    35   ar
    37     6     1   ar
    38    16    11   ar
    39    26    21   ar
    40    35    27   ar
    41    33     4    1
    42    35    31   ar
    43     7    36    1
    44    19    37    1
