@<TRIPOS>MOLECULE
*****
 40 45 0 0 0
SMALL
GASTEIGER

@<TRIPOS>ATOM
      1 C         141.0683  140.4772  166.5452 C.3     1  UNL1        0.1180
      2 C         142.0893  139.5393  165.9726 C.3     1  UNL1        0.0311
      3 C         143.3247  140.0837  165.3190 C.3     1  UNL1        0.0194
      4 C         143.5392  141.5661  165.2379 C.3     1  UNL1        0.0700
      5 C         142.5182  142.5040  165.8105 C.3     1  UNL1        0.0194
      6 C         141.2828  141.9595  166.4642 C.3     1  UNL1        0.0311
      7 C         142.8467  141.3148  165.6056 C.3     1  UNL1        0.1563
      8 O         141.7296  140.8225  166.1966 O.3     1  UNL1       -0.3548
      9 N         144.7747  142.1105  164.5843 N.3     1  UNL1       -0.2926
     10 H         145.5707  141.7283  165.0948 H       1  UNL1        0.1236
     11 C         145.0291  141.8520  163.1288 C.3     1  UNL1        0.1152
     12 C         144.1370  142.4658  162.0909 C.ar    1  UNL1        0.0765
     13 C         144.2901  142.0825  160.6487 C.ar    1  UNL1        0.0193
     14 C         143.3980  142.6963  159.6108 C.ar    1  UNL1        0.0411
     15 C         142.3529  143.6935  160.0149 C.ar    1  UNL1        0.1708
     16 C         142.1998  144.0769  161.4570 C.ar    1  UNL1        0.1682
     17 N         143.0919  143.4630  162.4950 N.ar    1  UNL1       -0.2304
     18 N         141.1547  145.0741  161.8611 N.am    1  UNL1       -0.2639
     19 C         140.2626  145.6879  160.8231 C.2     1  UNL1        0.2718
     20 O         139.2175  146.6851  161.2273 O.2     1  UNL1       -0.2707
     21 C         140.4156  145.3046  159.3810 C.3     1  UNL1        0.2898
     22 O         141.4608  144.3074  158.9769 O.3     1  UNL1       -0.4628
     23 H         141.0542  145.3257  162.8076 H       1  UNL1        0.1565
     24 C         139.8329  139.9328  167.1989 C.3     1  UNL1        0.1444
     25 O         139.8513  139.5728  168.6549 O.3     1  UNL1       -0.3508
     26 C         139.4609  140.5916  169.6843 C.3     1  UNL1        0.1741
     27 C         138.5790  139.7483  166.3965 C.3     1  UNL1        0.0622
     28 C         138.2697  143.0418  163.3457 C.ar    1  UNL1        0.2250
     29 C         138.3558  142.7199  161.8832 C.ar    1  UNL1        0.0593
     30 C         138.5449  141.3001  161.4376 C.ar    1  UNL1        0.0254
     31 C         138.6480  140.2023  162.4545 C.ar    1  UNL1        0.0990
     32 N         138.8371  138.7826  162.0089 N.ar    1  UNL1       -0.2400
     33 C         138.9402  137.6847  163.0258 C.ar    1  UNL1        0.1281
     34 C         138.8542  138.0066  164.4884 C.ar    1  UNL1        0.1567
     35 F         138.9573  136.9088  165.5053 F       1  UNL1       -0.2028
     36 C         138.6651  139.4264  164.9340 C.ar    1  UNL1        0.0285
     37 C         138.5620  140.5242  163.9170 C.ar    1  UNL1        0.1002
     38 N         138.3728  141.9440  164.3626 N.ar    1  UNL1       -0.2104
     39 C         138.6064  144.9057  165.1240 C.3     1  UNL1        0.2542
     40 O         138.0806  144.4615  163.7913 O.3     1  UNL1       -0.4561
@<TRIPOS>BOND
     1    39    40    1
     2    40    28    1
     3    28    29   ar
     4    29    30   ar
     5    30    31   ar
     6    31    32   ar
     7    32    33   ar
     8    33    34   ar
     9    34    35    1
    10    34    36   ar
    11    36    27    1
    12    24    27    1
    13    24    25    1
    14    25    26    1
    15    24     1    1
    16     1     2    1
    17     2     3    1
    18     3     4    1
    19     4     9    1
    20     9    11    1
    21    11    12    1
    22    12    13   ar
    23    13    14   ar
    24    14    15   ar
    25    15    16   ar
    26    16    17   ar
    27    16    18    1
    28    18    19   am
    29    19    20    2
    30    19    21    1
    31    21    22    1
    32     4     5    1
    33     5     6    1
    34     4     7    1
    35     7     8    1
    36    36    37   ar
    37    37    38   ar
    38    38    28   ar
    39    37    31   ar
    40     6     1    1
    41     8     1    1
    42    17    12   ar
    43    22    15    1
    44     9    10    1
    45    18    23    1
@<TRIPOS>MOLECULE
*****
 40 45 0 0 0
SMALL
GASTEIGER

@<TRIPOS>ATOM
      1 C         139.5029  138.1251  164.4170 C.3     1  UNL1        0.1180
      2 C         139.1103  138.2154  162.9722 C.3     1  UNL1        0.0311
      3 C         140.1202  137.9274  161.9011 C.3     1  UNL1        0.0194
      4 C         141.5228  137.5491  162.2749 C.3     1  UNL1        0.0700
      5 C         141.9154  137.4588  163.7198 C.3     1  UNL1        0.0194
      6 C         140.9054  137.7468  164.7909 C.3     1  UNL1        0.0311
      7 C         141.0043  137.6978  162.8971 C.3     1  UNL1        0.1563
      8 O         140.0912  137.9582  163.8655 O.3     1  UNL1       -0.3548
      9 N         142.5327  137.2612  161.2039 N.3     1  UNL1       -0.2926
     10 H         142.0610  137.3982  160.3100 H       1  UNL1        0.1236
     11 C         143.8087  138.0475  161.1453 C.3     1  UNL1        0.1152
     12 C         143.7826  139.5349  161.3375 C.ar    1  UNL1        0.0765
     13 C         143.4201  140.4330  160.1919 C.ar    1  UNL1        0.0193
     14 C         143.3940  141.9203  160.3841 C.ar    1  UNL1        0.0411
     15 C         143.7304  142.5097  161.7218 C.ar    1  UNL1        0.1708
     16 C         144.0928  141.6118  162.8673 C.ar    1  UNL1        0.1682
     17 N         144.1189  140.1243  162.6752 N.ar    1  UNL1       -0.2304
     18 N         144.4291  142.2012  164.2051 N.am    1  UNL1       -0.2639
     19 C         144.4030  143.6886  164.3973 C.2     1  UNL1        0.2718
     20 O         144.7394  144.2780  165.7350 O.2     1  UNL1       -0.2707
     21 C         144.0406  144.5866  163.2517 C.3     1  UNL1        0.2898
     22 O         143.7042  143.9972  161.9140 O.3     1  UNL1       -0.4628
     23 H         144.6670  141.6118  164.9569 H       1  UNL1        0.1565
     24 C         138.4930  138.4130  165.4881 C.3     1  UNL1        0.1444
     25 O         137.8644  137.2837  166.2493 O.3     1  UNL1       -0.3508
     26 C         137.0309  137.5697  167.4631 C.3     1  UNL1        0.1741
     27 C         138.1118  139.8303  165.7979 C.3     1  UNL1        0.0622
     28 C         138.8311  143.1714  162.8705 C.ar    1  UNL1        0.2250
     29 C         139.8959  144.1919  163.1440 C.ar    1  UNL1        0.0593
     30 C         140.7209  144.0987  164.3932 C.ar    1  UNL1        0.0254
     31 C         140.4812  142.9850  165.3690 C.ar    1  UNL1        0.0990
     32 N         141.3062  142.8918  166.6183 N.ar    1  UNL1       -0.2400
     33 C         141.0665  141.7781  167.5940 C.ar    1  UNL1        0.1281
     34 C         140.0016  140.7576  167.3206 C.ar    1  UNL1        0.1567
     35 F         139.7619  139.6439  168.2964 F       1  UNL1       -0.2028
     36 C         139.1766  140.8508  166.0714 C.ar    1  UNL1        0.0285
     37 C         139.4164  141.9645  165.0956 C.ar    1  UNL1        0.1002
     38 N         138.5913  142.0578  163.8463 N.ar    1  UNL1       -0.2104
     39 C         138.3727  142.4481  160.4177 C.3     1  UNL1        0.2542
     40 O         138.0060  143.2647  161.6213 O.3     1  UNL1       -0.4561
@<TRIPOS>BOND
     1    39    40    1
     2    40    28    1
     3    28    29   ar
     4    29    30   ar
     5    30    31   ar
     6    31    32   ar
     7    32    33   ar
     8    33    34   ar
     9    34    35    1
    10    34    36   ar
    11    36    27    1
    12    24    27    1
    13    24    25    1
    14    25    26    1
    15    24     1    1
    16     1     2    1
    17     2     3    1
    18     3     4    1
    19     4     9    1
    20     9    11    1
    21    11    12    1
    22    12    13   ar
    23    13    14   ar
    24    14    15   ar
    25    15    16   ar
    26    16    17   ar
    27    16    18    1
    28    18    19   am
    29    19    20    2
    30    19    21    1
    31    21    22    1
    32     4     5    1
    33     5     6    1
    34     4     7    1
    35     7     8    1
    36    36    37   ar
    37    37    38   ar
    38    38    28   ar
    39    37    31   ar
    40     6     1    1
    41     8     1    1
    42    17    12   ar
    43    22    15    1
    44     9    10    1
    45    18    23    1
@<TRIPOS>MOLECULE
*****
 40 45 0 0 0
SMALL
GASTEIGER

@<TRIPOS>ATOM
      1 C         138.6130  139.8285  164.5367 C.3     1  UNL1        0.1180
      2 C         137.6113  140.3034  163.5263 C.3     1  UNL1        0.0311
      3 C         137.4156  141.7728  163.2975 C.3     1  UNL1        0.0194
      4 C         138.2216  142.7675  164.0793 C.3     1  UNL1        0.0700
      5 C         139.2234  142.2926  165.0897 C.3     1  UNL1        0.0194
      6 C         139.4190  140.8230  165.3184 C.3     1  UNL1        0.0311
      7 C         138.3639  141.9724  164.2394 C.3     1  UNL1        0.1563
      8 O         138.5409  140.6437  164.4462 O.3     1  UNL1       -0.3548
      9 N         138.0259  144.2369  163.8506 N.3     1  UNL1       -0.2926
     10 H         138.2349  144.7028  164.7336 H       1  UNL1        0.1236
     11 C         138.8181  144.9430  162.7904 C.3     1  UNL1        0.1152
     12 C         140.2567  144.5835  162.5647 C.ar    1  UNL1        0.0765
     13 C         141.3177  145.1295  163.4738 C.ar    1  UNL1        0.0193
     14 C         142.7564  144.7700  163.2481 C.ar    1  UNL1        0.0411
     15 C         143.1341  143.8645  162.1135 C.ar    1  UNL1        0.1708
     16 C         142.0732  143.3185  161.2045 C.ar    1  UNL1        0.1682
     17 N         140.6345  143.6780  161.4301 N.ar    1  UNL1       -0.2304
     18 N         142.4510  142.4130  160.0699 N.am    1  UNL1       -0.2639
     19 C         143.8896  142.0535  159.8442 C.2     1  UNL1        0.2718
     20 O         144.2674  141.1480  158.7096 O.2     1  UNL1       -0.2707
     21 C         144.9506  142.5995  160.7532 C.3     1  UNL1        0.2898
     22 O         144.5729  143.5050  161.8879 O.3     1  UNL1       -0.4628
     23 H         141.7546  142.0547  159.4733 H       1  UNL1        0.1565
     24 C         138.8087  138.3590  164.7654 C.3     1  UNL1        0.1444
     25 O         138.3249  137.7269  166.0368 O.3     1  UNL1       -0.3508
     26 C         137.5639  138.5440  167.0383 C.3     1  UNL1        0.1741
     27 C         139.4883  137.5216  163.7228 C.3     1  UNL1        0.0622
     28 C         143.3775  138.6771  165.6691 C.ar    1  UNL1        0.2250
     29 C         144.4852  139.2609  164.8432 C.ar    1  UNL1        0.0593
     30 C         144.2964  139.4595  163.3684 C.ar    1  UNL1        0.0254
     31 C         143.0000  139.0744  162.7196 C.ar    1  UNL1        0.0990
     32 N         142.8113  139.2730  161.2448 N.ar    1  UNL1       -0.2400
     33 C         141.5149  138.8879  160.5961 C.ar    1  UNL1        0.1281
     34 C         140.4071  138.3040  161.4220 C.ar    1  UNL1        0.1567
     35 F         139.1108  137.9189  160.7732 F       1  UNL1       -0.2028
     36 C         140.5959  138.1054  162.8968 C.ar    1  UNL1        0.0285
     37 C         141.8924  138.4906  163.5456 C.ar    1  UNL1        0.1002
     38 N         142.0811  138.2920  165.0203 N.ar    1  UNL1       -0.2104
     39 C         142.7175  139.2405  168.1180 C.3     1  UNL1        0.2542
     40 O         143.5663  138.4785  167.1439 O.3     1  UNL1       -0.4561
@<TRIPOS>BOND
     1    39    40    1
     2    40    28    1
     3    28    29   ar
     4    29    30   ar
     5    30    31   ar
     6    31    32   ar
     7    32    33   ar
     8    33    34   ar
     9    34    35    1
    10    34    36   ar
    11    36    27    1
    12    24    27    1
    13    24    25    1
    14    25    26    1
    15    24     1    1
    16     1     2    1
    17     2     3    1
    18     3     4    1
    19     4     9    1
    20     9    11    1
    21    11    12    1
    22    12    13   ar
    23    13    14   ar
    24    14    15   ar
    25    15    16   ar
    26    16    17   ar
    27    16    18    1
    28    18    19   am
    29    19    20    2
    30    19    21    1
    31    21    22    1
    32     4     5    1
    33     5     6    1
    34     4     7    1
    35     7     8    1
    36    36    37   ar
    37    37    38   ar
    38    38    28   ar
    39    37    31   ar
    40     6     1    1
    41     8     1    1
    42    17    12   ar
    43    22    15    1
    44     9    10    1
    45    18    23    1
@<TRIPOS>MOLECULE
*****
 40 45 0 0 0
SMALL
GASTEIGER

@<TRIPOS>ATOM
      1 C         143.3780  140.3497  160.7039 C.3     1  UNL1        0.1180
      2 C         141.8926  140.4345  160.8939 C.3     1  UNL1        0.0311
      3 C         141.1594  139.3202  161.5801 C.3     1  UNL1        0.0194
      4 C         141.9118  138.1211  162.0763 C.3     1  UNL1        0.0700
      5 C         143.3973  138.0363  161.8863 C.3     1  UNL1        0.0194
      6 C         144.1304  139.1506  161.2000 C.3     1  UNL1        0.0311
      7 C         142.3569  138.7067  161.7063 C.3     1  UNL1        0.1563
      8 O         143.0199  139.7142  161.0858 O.3     1  UNL1       -0.3548
      9 N         141.1786  137.0069  162.7625 N.3     1  UNL1       -0.2926
     10 H         141.5794  136.1345  162.4179 H       1  UNL1        0.1236
     11 C         141.1768  136.9206  164.2600 C.3     1  UNL1        0.1152
     12 C         140.8986  138.1445  165.0814 C.ar    1  UNL1        0.0765
     13 C         139.4959  138.6614  165.2058 C.ar    1  UNL1        0.0193
     14 C         139.2177  139.8853  166.0271 C.ar    1  UNL1        0.0411
     15 C         140.3421  140.5923  166.7242 C.ar    1  UNL1        0.1708
     16 C         141.7447  140.0755  166.5998 C.ar    1  UNL1        0.1682
     17 N         142.0230  138.8515  165.7784 N.ar    1  UNL1       -0.2304
     18 N         142.8691  140.7825  167.2969 N.am    1  UNL1       -0.2639
     19 C         142.5909  142.0064  168.1183 C.2     1  UNL1        0.2718
     20 O         143.7153  142.7134  168.8153 O.2     1  UNL1       -0.2707
     21 C         141.1882  142.5233  168.2426 C.3     1  UNL1        0.2898
     22 O         140.0638  141.8162  167.5456 O.3     1  UNL1       -0.4628
     23 H         143.7897  140.4432  167.2153 H       1  UNL1        0.1565
     24 C         144.1112  141.4639  160.0177 C.3     1  UNL1        0.1444
     25 O         144.1334  141.5363  158.5196 O.3     1  UNL1       -0.3508
     26 C         145.0221  142.5285  157.8298 C.3     1  UNL1        0.1741
     27 C         144.8221  142.5058  160.8295 C.3     1  UNL1        0.0622
     28 C         141.1552  145.0944  161.1501 C.ar    1  UNL1        0.2250
     29 C         140.6273  145.4832  162.4992 C.ar    1  UNL1        0.0593
     30 C         141.3216  145.0091  163.7415 C.ar    1  UNL1        0.0254
     31 C         142.5439  144.1463  163.6346 C.ar    1  UNL1        0.0990
     32 N         143.2382  143.6722  164.8769 N.ar    1  UNL1       -0.2400
     33 C         144.4605  142.8093  164.7700 C.ar    1  UNL1        0.1281
     34 C         144.9885  142.4205  163.4209 C.ar    1  UNL1        0.1567
     35 F         146.2108  141.5577  163.3140 F       1  UNL1       -0.2028
     36 C         144.2942  142.8946  162.1786 C.ar    1  UNL1        0.0285
     37 C         143.0718  143.7575  162.2855 C.ar    1  UNL1        0.1002
     38 N         142.3775  144.2316  161.0433 N.ar    1  UNL1       -0.2104
     39 C         141.1878  145.5680  158.5958 C.3     1  UNL1        0.2542
     40 O         140.4609  145.5685  159.9079 O.3     1  UNL1       -0.4561
@<TRIPOS>BOND
     1    39    40    1
     2    40    28    1
     3    28    29   ar
     4    29    30   ar
     5    30    31   ar
     6    31    32   ar
     7    32    33   ar
     8    33    34   ar
     9    34    35    1
    10    34    36   ar
    11    36    27    1
    12    24    27    1
    13    24    25    1
    14    25    26    1
    15    24     1    1
    16     1     2    1
    17     2     3    1
    18     3     4    1
    19     4     9    1
    20     9    11    1
    21    11    12    1
    22    12    13   ar
    23    13    14   ar
    24    14    15   ar
    25    15    16   ar
    26    16    17   ar
    27    16    18    1
    28    18    19   am
    29    19    20    2
    30    19    21    1
    31    21    22    1
    32     4     5    1
    33     5     6    1
    34     4     7    1
    35     7     8    1
    36    36    37   ar
    37    37    38   ar
    38    38    28   ar
    39    37    31   ar
    40     6     1    1
    41     8     1    1
    42    17    12   ar
    43    22    15    1
    44     9    10    1
    45    18    23    1
@<TRIPOS>MOLECULE
*****
 40 45 0 0 0
SMALL
GASTEIGER

@<TRIPOS>ATOM
      1 C         140.5024  139.9017  161.0020 C.3     1  UNL1        0.1180
      2 C         141.2061  138.6634  161.4724 C.3     1  UNL1        0.0311
      3 C         142.6532  138.7253  161.8623 C.3     1  UNL1        0.0194
      4 C         143.3967  140.0256  161.7817 C.3     1  UNL1        0.0700
      5 C         142.6930  141.2640  161.3112 C.3     1  UNL1        0.0194
      6 C         141.2458  141.2020  160.9213 C.3     1  UNL1        0.0311
      7 C         142.6046  140.0410  161.5574 C.3     1  UNL1        0.1563
      8 O         141.2961  139.9850  161.2049 O.3     1  UNL1       -0.3548
      9 N         144.8438  140.0875  162.1715 N.3     1  UNL1       -0.2926
     10 H         145.3092  140.6787  161.4828 H       1  UNL1        0.1236
     11 C         145.2348  140.6072  163.5232 C.3     1  UNL1        0.1152
     12 C         144.3576  140.3430  164.7108 C.ar    1  UNL1        0.0765
     13 C         144.2153  138.9477  165.2427 C.ar    1  UNL1        0.0193
     14 C         143.3380  138.6835  166.4303 C.ar    1  UNL1        0.0411
     15 C         142.6030  139.8147  167.0862 C.ar    1  UNL1        0.1708
     16 C         142.7452  141.2100  166.5544 C.ar    1  UNL1        0.1682
     17 N         143.6225  141.4742  165.3667 N.ar    1  UNL1       -0.2304
     18 N         142.0101  142.3411  167.2103 N.am    1  UNL1       -0.2639
     19 C         141.1329  142.0770  168.3980 C.2     1  UNL1        0.2718
     20 O         140.3978  143.2081  169.0538 O.2     1  UNL1       -0.2707
     21 C         140.9906  140.6816  168.9298 C.3     1  UNL1        0.2898
     22 O         141.7257  139.5504  168.2739 O.3     1  UNL1       -0.4628
     23 H         142.1035  143.2569  166.8613 H       1  UNL1        0.1565
     24 C         139.0553  139.8398  160.6121 C.3     1  UNL1        0.1444
     25 O         138.6728  139.5268  159.1959 O.3     1  UNL1       -0.3508
     26 C         138.1911  140.6209  158.2899 C.3     1  UNL1        0.1741
     27 C         137.9906  140.0908  161.6386 C.3     1  UNL1        0.0622
     28 C         138.6419  144.3321  162.9940 C.ar    1  UNL1        0.2250
     29 C         139.0235  144.6145  164.4169 C.ar    1  UNL1        0.0593
     30 C         139.1881  143.4831  165.3879 C.ar    1  UNL1        0.0254
     31 C         138.9710  142.0694  164.9361 C.ar    1  UNL1        0.0990
     32 N         139.1355  140.9380  165.9072 N.ar    1  UNL1       -0.2400
     33 C         138.9185  139.5243  165.4554 C.ar    1  UNL1        0.1281
     34 C         138.5368  139.2418  164.0325 C.ar    1  UNL1        0.1567
     35 F         138.3197  137.8281  163.5807 F       1  UNL1       -0.2028
     36 C         138.3723  140.3732  163.0614 C.ar    1  UNL1        0.0285
     37 C         138.5894  141.7870  163.5133 C.ar    1  UNL1        0.1002
     38 N         138.4248  142.9184  162.5422 N.ar    1  UNL1       -0.2104
     39 C         139.6683  146.2764  161.6098 C.3     1  UNL1        0.2542
     40 O         138.4774  145.4635  162.0230 O.3     1  UNL1       -0.4561
@<TRIPOS>BOND
     1    39    40    1
     2    40    28    1
     3    28    29   ar
     4    29    30   ar
     5    30    31   ar
     6    31    32   ar
     7    32    33   ar
     8    33    34   ar
     9    34    35    1
    10    34    36   ar
    11    36    27    1
    12    24    27    1
    13    24    25    1
    14    25    26    1
    15    24     1    1
    16     1     2    1
    17     2     3    1
    18     3     4    1
    19     4     9    1
    20     9    11    1
    21    11    12    1
    22    12    13   ar
    23    13    14   ar
    24    14    15   ar
    25    15    16   ar
    26    16    17   ar
    27    16    18    1
    28    18    19   am
    29    19    20    2
    30    19    21    1
    31    21    22    1
    32     4     5    1
    33     5     6    1
    34     4     7    1
    35     7     8    1
    36    36    37   ar
    37    37    38   ar
    38    38    28   ar
    39    37    31   ar
    40     6     1    1
    41     8     1    1
    42    17    12   ar
    43    22    15    1
    44     9    10    1
    45    18    23    1
@<TRIPOS>MOLECULE
*****
 40 45 0 0 0
SMALL
GASTEIGER

@<TRIPOS>ATOM
      1 C         139.0482  143.3704  161.8214 C.3     1  UNL1        0.1180
      2 C         137.8204  143.0081  162.6031 C.3     1  UNL1        0.0311
      3 C         137.3103  141.5976  162.5875 C.3     1  UNL1        0.0194
      4 C         138.0282  140.5492  161.7902 C.3     1  UNL1        0.0700
      5 C         139.2561  140.9115  161.0084 C.3     1  UNL1        0.0194
      6 C         139.7661  142.3221  161.0241 C.3     1  UNL1        0.0311
      7 C         138.3454  141.3087  161.7681 C.3     1  UNL1        0.1563
      8 O         138.8066  142.5842  161.7822 O.3     1  UNL1       -0.3548
      9 N         137.5182  139.1387  161.7745 N.3     1  UNL1       -0.2926
     10 H         137.4342  138.8668  160.7951 H       1  UNL1        0.1236
     11 C         138.2936  138.0532  162.4603 C.3     1  UNL1        0.1152
     12 C         139.1807  138.3852  163.6234 C.ar    1  UNL1        0.0765
     13 C         140.6716  138.3116  163.4746 C.ar    1  UNL1        0.0193
     14 C         141.5587  138.6437  164.6376 C.ar    1  UNL1        0.0411
     15 C         140.9551  139.0494  165.9495 C.ar    1  UNL1        0.1708
     16 C         139.4643  139.1230  166.0983 C.ar    1  UNL1        0.1682
     17 N         138.5771  138.7909  164.9353 N.ar    1  UNL1       -0.2304
     18 N         138.8607  139.5287  167.4102 N.am    1  UNL1       -0.2639
     19 C         139.7478  139.8608  168.5733 C.2     1  UNL1        0.2718
     20 O         139.1442  140.2665  169.8851 O.2     1  UNL1       -0.2707
     21 C         141.2386  139.7872  168.4244 C.3     1  UNL1        0.2898
     22 O         141.8423  139.3815  167.1126 O.3     1  UNL1       -0.4628
     23 H         137.8822  139.5770  167.5079 H       1  UNL1        0.1565
     24 C         139.5582  144.7809  161.8370 C.3     1  UNL1        0.1444
     25 O         139.4371  145.6358  160.6105 O.3     1  UNL1       -0.3508
     26 C         140.4080  145.4669  159.4797 C.3     1  UNL1        0.1741
     27 C         140.1894  145.3365  163.0792 C.3     1  UNL1        0.0622
     28 C         144.0532  143.0362  162.9087 C.ar    1  UNL1        0.2250
     29 C         144.4298  142.1182  164.0336 C.ar    1  UNL1        0.0593
     30 C         143.5185  141.9670  165.2154 C.ar    1  UNL1        0.0254
     31 C         142.2306  142.7338  165.2723 C.ar    1  UNL1        0.0990
     32 N         141.3192  142.5826  166.4541 N.ar    1  UNL1       -0.2400
     33 C         140.0313  143.3494  166.5109 C.ar    1  UNL1        0.1281
     34 C         139.6547  144.2674  165.3860 C.ar    1  UNL1        0.1567
     35 F         138.3667  145.0341  165.4428 F       1  UNL1       -0.2028
     36 C         140.5660  144.4186  164.2042 C.ar    1  UNL1        0.0285
     37 C         141.8540  143.6517  164.1474 C.ar    1  UNL1        0.1002
     38 N         142.7653  143.8029  162.9656 N.ar    1  UNL1       -0.2104
     39 C         144.6861  142.4289  160.4632 C.3     1  UNL1        0.2542
     40 O         144.9646  143.1874  161.7269 O.3     1  UNL1       -0.4561
@<TRIPOS>BOND
     1    39    40    1
     2    40    28    1
     3    28    29   ar
     4    29    30   ar
     5    30    31   ar
     6    31    32   ar
     7    32    33   ar
     8    33    34   ar
     9    34    35    1
    10    34    36   ar
    11    36    27    1
    12    24    27    1
    13    24    25    1
    14    25    26    1
    15    24     1    1
    16     1     2    1
    17     2     3    1
    18     3     4    1
    19     4     9    1
    20     9    11    1
    21    11    12    1
    22    12    13   ar
    23    13    14   ar
    24    14    15   ar
    25    15    16   ar
    26    16    17   ar
    27    16    18    1
    28    18    19   am
    29    19    20    2
    30    19    21    1
    31    21    22    1
    32     4     5    1
    33     5     6    1
    34     4     7    1
    35     7     8    1
    36    36    37   ar
    37    37    38   ar
    38    38    28   ar
    39    37    31   ar
    40     6     1    1
    41     8     1    1
    42    17    12   ar
    43    22    15    1
    44     9    10    1
    45    18    23    1
@<TRIPOS>MOLECULE
*****
 40 45 0 0 0
SMALL
GASTEIGER

@<TRIPOS>ATOM
      1 C         141.0251  140.1145  166.6047 C.3     1  UNL1        0.1180
      2 C         141.9830  139.0294  166.2114 C.3     1  UNL1        0.0311
      3 C         143.2432  139.3725  165.4738 C.3     1  UNL1        0.0194
      4 C         143.5455  140.8009  165.1295 C.3     1  UNL1        0.0700
      5 C         142.5876  141.8860  165.5229 C.3     1  UNL1        0.0194
      6 C         141.3273  141.5428  166.2605 C.3     1  UNL1        0.0311
      7 C         142.8423  140.6617  165.5346 C.3     1  UNL1        0.1563
      8 O         141.7028  140.3514  166.2016 O.3     1  UNL1       -0.3548
      9 N         144.8057  141.1440  164.3920 N.3     1  UNL1       -0.2926
     10 H         145.5647  140.6479  164.8591 H       1  UNL1        0.1236
     11 C         144.9249  140.8385  162.9282 C.3     1  UNL1        0.1152
     12 C         143.8553  141.2896  161.9784 C.ar    1  UNL1        0.0765
     13 C         143.7282  142.7424  161.6270 C.ar    1  UNL1        0.0193
     14 C         142.6585  143.1935  160.6771 C.ar    1  UNL1        0.0411
     15 C         141.7159  142.1919  160.0786 C.ar    1  UNL1        0.1708
     16 C         141.8429  140.7392  160.4300 C.ar    1  UNL1        0.1682
     17 N         142.9126  140.2880  161.3799 N.ar    1  UNL1       -0.2304
     18 N         140.9002  139.7376  159.8315 N.am    1  UNL1       -0.2639
     19 C         139.8305  140.1887  158.8817 C.2     1  UNL1        0.2718
     20 O         138.8879  139.1871  158.2832 O.2     1  UNL1       -0.2707
     21 C         139.7035  141.6414  158.5303 C.3     1  UNL1        0.2898
     22 O         140.6462  142.6430  159.1287 O.3     1  UNL1       -0.4628
     23 H         140.9836  138.7841  160.0622 H       1  UNL1        0.1565
     24 C         139.7648  139.7714  167.3423 C.3     1  UNL1        0.1444
     25 O         139.7659  139.7105  168.8411 O.3     1  UNL1       -0.3508
     26 C         139.6535  140.9731  169.6431 C.3     1  UNL1        0.1741
     27 C         138.5035  139.4891  166.5811 C.3     1  UNL1        0.0622
     28 C         137.8678  143.0537  163.9093 C.ar    1  UNL1        0.2250
     29 C         137.9117  142.8911  162.4188 C.ar    1  UNL1        0.0593
     30 C         138.1675  141.5403  161.8189 C.ar    1  UNL1        0.0254
     31 C         138.3794  140.3521  162.7095 C.ar    1  UNL1        0.0990
     32 N         138.6352  139.0013  162.1096 N.ar    1  UNL1       -0.2400
     33 C         138.8471  137.8131  163.0002 C.ar    1  UNL1        0.1281
     34 C         138.8032  137.9757  164.4908 C.ar    1  UNL1        0.1567
     35 F         139.0151  136.7875  165.3814 F       1  UNL1       -0.2028
     36 C         138.5474  139.3265  165.0907 C.ar    1  UNL1        0.0285
     37 C         138.3355  140.5147  164.2000 C.ar    1  UNL1        0.1002
     38 N         138.0797  141.8655  164.7999 N.ar    1  UNL1       -0.2104
     39 C         138.5707  144.9732  165.5129 C.3     1  UNL1        0.2542
     40 O         137.6120  144.4046  164.5091 O.3     1  UNL1       -0.4561
@<TRIPOS>BOND
     1    39    40    1
     2    40    28    1
     3    28    29   ar
     4    29    30   ar
     5    30    31   ar
     6    31    32   ar
     7    32    33   ar
     8    33    34   ar
     9    34    35    1
    10    34    36   ar
    11    36    27    1
    12    24    27    1
    13    24    25    1
    14    25    26    1
    15    24     1    1
    16     1     2    1
    17     2     3    1
    18     3     4    1
    19     4     9    1
    20     9    11    1
    21    11    12    1
    22    12    13   ar
    23    13    14   ar
    24    14    15   ar
    25    15    16   ar
    26    16    17   ar
    27    16    18    1
    28    18    19   am
    29    19    20    2
    30    19    21    1
    31    21    22    1
    32     4     5    1
    33     5     6    1
    34     4     7    1
    35     7     8    1
    36    36    37   ar
    37    37    38   ar
    38    38    28   ar
    39    37    31   ar
    40     6     1    1
    41     8     1    1
    42    17    12   ar
    43    22    15    1
    44     9    10    1
    45    18    23    1
@<TRIPOS>MOLECULE
*****
 40 45 0 0 0
SMALL
GASTEIGER

@<TRIPOS>ATOM
      1 C         140.1830  143.2148  162.3324 C.3     1  UNL1        0.1180
      2 C         139.8209  141.9257  161.6565 C.3     1  UNL1        0.0311
      3 C         139.0095  140.8976  162.3876 C.3     1  UNL1        0.0194
      4 C         138.5601  141.1586  163.7947 C.3     1  UNL1        0.0700
      5 C         138.9222  142.4478  164.4707 C.3     1  UNL1        0.0194
      6 C         139.7337  143.4759  163.7395 C.3     1  UNL1        0.0311
      7 C         139.0030  141.7520  163.4346 C.3     1  UNL1        0.1563
      8 O         139.7367  142.6817  162.7735 O.3     1  UNL1       -0.3548
      9 N         137.7486  140.1306  164.5258 N.3     1  UNL1       -0.2926
     10 H         137.1790  139.6536  163.8269 H       1  UNL1        0.1236
     11 C         138.4350  139.0639  165.3264 C.3     1  UNL1        0.1152
     12 C         139.5293  139.4320  166.2839 C.ar    1  UNL1        0.0765
     13 C         140.9619  139.1759  165.9201 C.ar    1  UNL1        0.0193
     14 C         142.0562  139.5441  166.8776 C.ar    1  UNL1        0.0411
     15 C         141.7180  140.1684  168.1990 C.ar    1  UNL1        0.1708
     16 C         140.2856  140.4245  168.5628 C.ar    1  UNL1        0.1682
     17 N         139.1912  140.0563  167.6053 N.ar    1  UNL1       -0.2304
     18 N         139.9474  141.0487  169.8841 N.am    1  UNL1       -0.2639
     19 C         141.0418  141.4169  170.8416 C.2     1  UNL1        0.2718
     20 O         140.7036  142.0412  172.1630 O.2     1  UNL1       -0.2707
     21 C         142.4743  141.1608  170.4778 C.3     1  UNL1        0.2898
     22 O         142.8125  140.5366  169.1565 O.3     1  UNL1       -0.4628
     23 H         139.0072  141.2168  170.1229 H       1  UNL1        0.1565
     24 C         140.9945  144.2429  161.6013 C.3     1  UNL1        0.1444
     25 O         140.3086  145.3594  160.8713 O.3     1  UNL1       -0.3508
     26 C         139.6165  146.4450  161.6409 C.3     1  UNL1        0.1741
     27 C         142.4920  144.1545  161.6003 C.3     1  UNL1        0.0622
     28 C         143.5557  139.7898  161.3401 C.ar    1  UNL1        0.2250
     29 C         144.2684  139.1224  162.4787 C.ar    1  UNL1        0.0593
     30 C         144.6266  139.9099  163.7041 C.ar    1  UNL1        0.0254
     31 C         144.2720  141.3648  163.7909 C.ar    1  UNL1        0.0990
     32 N         144.6302  142.1523  165.0163 N.ar    1  UNL1       -0.2400
     33 C         144.2756  143.6072  165.1030 C.ar    1  UNL1        0.1281
     34 C         143.5628  144.2746  163.9643 C.ar    1  UNL1        0.1567
     35 F         143.2083  145.7295  164.0510 F       1  UNL1       -0.2028
     36 C         143.2047  143.4871  162.7389 C.ar    1  UNL1        0.0285
     37 C         143.5593  142.0322  162.6522 C.ar    1  UNL1        0.1002
     38 N         143.2011  141.2447  161.4268 N.ar    1  UNL1       -0.2104
     39 C         142.9815  137.5212  160.2116 C.3     1  UNL1        0.2542
     40 O         143.1976  139.0023  160.1147 O.3     1  UNL1       -0.4561
@<TRIPOS>BOND
     1    39    40    1
     2    40    28    1
     3    28    29   ar
     4    29    30   ar
     5    30    31   ar
     6    31    32   ar
     7    32    33   ar
     8    33    34   ar
     9    34    35    1
    10    34    36   ar
    11    36    27    1
    12    24    27    1
    13    24    25    1
    14    25    26    1
    15    24     1    1
    16     1     2    1
    17     2     3    1
    18     3     4    1
    19     4     9    1
    20     9    11    1
    21    11    12    1
    22    12    13   ar
    23    13    14   ar
    24    14    15   ar
    25    15    16   ar
    26    16    17   ar
    27    16    18    1
    28    18    19   am
    29    19    20    2
    30    19    21    1
    31    21    22    1
    32     4     5    1
    33     5     6    1
    34     4     7    1
    35     7     8    1
    36    36    37   ar
    37    37    38   ar
    38    38    28   ar
    39    37    31   ar
    40     6     1    1
    41     8     1    1
    42    17    12   ar
    43    22    15    1
    44     9    10    1
    45    18    23    1
@<TRIPOS>MOLECULE
*****
 40 45 0 0 0
SMALL
GASTEIGER

@<TRIPOS>ATOM
      1 C         142.5851  144.0799  160.2043 C.3     1  UNL1        0.1180
      2 C         142.7734  144.3706  161.6638 C.3     1  UNL1        0.0311
      3 C         143.7974  143.6110  162.4538 C.3     1  UNL1        0.0194
      4 C         144.6333  142.5605  161.7844 C.3     1  UNL1        0.0700
      5 C         144.4450  142.2698  160.3250 C.3     1  UNL1        0.0194
      6 C         143.4209  143.0295  159.5349 C.3     1  UNL1        0.0311
      7 C         144.0848  142.9507  161.3102 C.3     1  UNL1        0.1563
      8 O         143.1588  143.6376  160.5958 O.3     1  UNL1       -0.3548
      9 N         145.6573  141.8009  162.5745 N.3     1  UNL1       -0.2926
     10 H         146.2855  142.4923  162.9841 H       1  UNL1        0.1236
     11 C         145.2242  140.8952  163.6890 C.3     1  UNL1        0.1152
     12 C         143.9985  140.0452  163.5314 C.ar    1  UNL1        0.0765
     13 C         143.9653  138.9619  162.4943 C.ar    1  UNL1        0.0193
     14 C         142.7395  138.1119  162.3366 C.ar    1  UNL1        0.0411
     15 C         141.5469  138.3450  163.2160 C.ar    1  UNL1        0.1708
     16 C         141.5801  139.4283  164.2531 C.ar    1  UNL1        0.1682
     17 N         142.8059  140.2784  164.4108 N.ar    1  UNL1       -0.2304
     18 N         140.3875  139.6614  165.1325 N.am    1  UNL1       -0.2639
     19 C         139.1617  138.8114  164.9748 C.2     1  UNL1        0.2718
     20 O         137.9691  139.0446  165.8542 O.2     1  UNL1       -0.2707
     21 C         139.1285  137.7281  163.9377 C.3     1  UNL1        0.2898
     22 O         140.3211  137.4949  163.0583 O.3     1  UNL1       -0.4628
     23 H         140.4092  140.3724  165.8131 H       1  UNL1        0.1565
     24 C         141.5611  144.8395  159.4143 C.3     1  UNL1        0.1444
     25 O         141.9946  145.9133  158.4609 O.3     1  UNL1       -0.3508
     26 C         141.9982  145.6487  156.9845 C.3     1  UNL1        0.1741
     27 C         140.1034  144.5253  159.5776 C.3     1  UNL1        0.0622
     28 C         137.8484  143.2804  163.2674 C.ar    1  UNL1        0.2250
     29 C         137.4013  141.8577  163.4288 C.ar    1  UNL1        0.0593
     30 C         137.7059  140.8500  162.3603 C.ar    1  UNL1        0.0254
     31 C         138.4575  141.2650  161.1304 C.ar    1  UNL1        0.0990
     32 N         138.7621  140.2572  160.0619 N.ar    1  UNL1       -0.2400
     33 C         139.5138  140.6722  158.8319 C.ar    1  UNL1        0.1281
     34 C         139.9609  142.0949  158.6705 C.ar    1  UNL1        0.1567
     35 F         140.7126  142.5099  157.4405 F       1  UNL1       -0.2028
     36 C         139.6563  143.1026  159.7390 C.ar    1  UNL1        0.0285
     37 C         138.9046  142.6876  160.9690 C.ar    1  UNL1        0.1002
     38 N         138.6000  143.6953  162.0375 N.ar    1  UNL1       -0.2104
     39 C         138.6327  144.7619  165.2523 C.3     1  UNL1        0.2542
     40 O         137.5438  144.2881  164.3359 O.3     1  UNL1       -0.4561
@<TRIPOS>BOND
     1    39    40    1
     2    40    28    1
     3    28    29   ar
     4    29    30   ar
     5    30    31   ar
     6    31    32   ar
     7    32    33   ar
     8    33    34   ar
     9    34    35    1
    10    34    36   ar
    11    36    27    1
    12    24    27    1
    13    24    25    1
    14    25    26    1
    15    24     1    1
    16     1     2    1
    17     2     3    1
    18     3     4    1
    19     4     9    1
    20     9    11    1
    21    11    12    1
    22    12    13   ar
    23    13    14   ar
    24    14    15   ar
    25    15    16   ar
    26    16    17   ar
    27    16    18    1
    28    18    19   am
    29    19    20    2
    30    19    21    1
    31    21    22    1
    32     4     5    1
    33     5     6    1
    34     4     7    1
    35     7     8    1
    36    36    37   ar
    37    37    38   ar
    38    38    28   ar
    39    37    31   ar
    40     6     1    1
    41     8     1    1
    42    17    12   ar
    43    22    15    1
    44     9    10    1
    45    18    23    1
