@<TRIPOS>MOLECULE
*****
 28 30 0 0 0
SMALL
GASTEIGER

@<TRIPOS>ATOM
      1 N         141.1231  145.0864  159.9270 N.3     1  UNL1       -0.2686
      2 C         141.8533  143.9070  160.4978 C.3     1  UNL1        0.0940
      3 C         141.5018  143.3967  161.8640 C.3     1  UNL1        0.1123
      4 N         140.4203  144.0658  162.6592 N.am    1  UNL1       -0.2611
      5 C         140.0689  143.5556  164.0252 C.2     1  UNL1        0.3078
      6 O         138.9872  144.2247  164.8205 O.2     1  UNL1       -0.2522
      7 N         140.7991  142.3762  164.5960 N.am    1  UNL1       -0.2681
      8 C         139.6901  145.2452  162.0883 C.3     1  UNL1        0.1123
      9 C         140.0415  145.7555  160.7223 C.3     1  UNL1        0.0940
     10 H         141.5089  141.9370  164.0741 H       1  UNL1        0.1564
     11 C         140.4476  141.8659  165.9622 C.ar    1  UNL1        0.0525
     12 C         139.8154  140.5147  166.1183 C.ar    1  UNL1        0.0156
     13 C         139.4640  140.0044  167.4843 C.ar    1  UNL1        0.0135
     14 C         139.7447  140.8454  168.6942 C.ar    1  UNL1        0.0683
     15 CL        139.3933  140.3351  170.0603 Cl      1  UNL1       -0.0814
     16 C         140.3769  142.1967  168.5380 C.ar    1  UNL1        0.0694
     17 CL        140.6576  143.0377  169.7480 Cl      1  UNL1       -0.0813
     18 C         140.7283  142.7070  167.1720 C.ar    1  UNL1        0.0270
     19 C         141.4745  145.5966  158.5610 C.3     1  UNL1        0.0895
     20 N         138.6942  144.4436  155.9743 N.3     1  UNL1       -0.2703
     21 C         138.3341  145.7552  155.3418 C.3     1  UNL1        0.0894
     22 C         139.0208  147.0139  155.7824 C.3     1  UNL1        0.0862
     23 N         140.0676  146.9611  156.8554 N.3     1  UNL1       -0.2951
     24 C         140.4277  145.6495  157.4879 C.3     1  UNL1        0.0864
     25 C         139.7410  144.3908  157.0473 C.3     1  UNL1        0.0894
     26 H         139.7499  147.5731  157.6070 H       1  UNL1        0.1233
     27 C         136.5715  143.2255  155.1024 C.3     1  UNL1        0.0188
     28 C         138.0076  143.1849  155.5337 C.3     1  UNL1        0.0722
@<TRIPOS>BOND
     1    27    28    1
     2    28    20    1
     3    20    21    1
     4    21    22    1
     5    22    23    1
     6    23    24    1
     7    24    19    1
     8    19     1    1
     9     1     2    1
    10     2     3    1
    11     3     4    1
    12     4     5   am
    13     5     6    2
    14     5     7   am
    15     7    11    1
    16    11    12   ar
    17    12    13   ar
    18    13    14   ar
    19    14    15    1
    20    14    16   ar
    21    16    17    1
    22    16    18   ar
    23     4     8    1
    24     8     9    1
    25    24    25    1
    26    25    20    1
    27     9     1    1
    28    18    11   ar
    29    23    26    1
    30     7    10    1
@<TRIPOS>MOLECULE
*****
 28 30 0 0 0
SMALL
GASTEIGER

@<TRIPOS>ATOM
      1 N         141.1182  145.1227  159.7145 N.3     1  UNL1       -0.2686
      2 C         141.8160  143.9003  160.2331 C.3     1  UNL1        0.0940
      3 C         141.4825  143.3674  161.5950 C.3     1  UNL1        0.1123
      4 N         140.4512  144.0567  162.4383 N.am    1  UNL1       -0.2611
      5 C         140.1177  143.5237  163.8001 C.2     1  UNL1        0.3078
      6 O         139.0864  144.2131  164.6435 O.2     1  UNL1       -0.2522
      7 N         140.8155  142.3014  164.3187 N.am    1  UNL1       -0.2681
      8 C         139.7534  145.2791  161.9197 C.3     1  UNL1        0.1123
      9 C         140.0868  145.8121  160.5579 C.3     1  UNL1        0.0940
     10 H         141.4924  141.8489  163.7652 H       1  UNL1        0.1564
     11 C         140.4820  141.7684  165.6806 C.ar    1  UNL1        0.0525
     12 C         141.1154  142.3732  166.8984 C.ar    1  UNL1        0.0156
     13 C         140.7819  141.8403  168.2603 C.ar    1  UNL1        0.0135
     14 C         139.8150  140.7026  168.4043 C.ar    1  UNL1        0.0683
     15 CL        139.4815  140.1696  169.7663 Cl      1  UNL1       -0.0814
     16 C         139.1816  140.0978  167.1865 C.ar    1  UNL1        0.0694
     17 CL        138.2147  138.9600  167.3306 Cl      1  UNL1       -0.0813
     18 C         139.5151  140.6307  165.8247 C.ar    1  UNL1        0.0270
     19 C         141.4517  145.6557  158.3526 C.3     1  UNL1        0.0895
     20 N         138.6666  144.5623  155.7454 N.3     1  UNL1       -0.2703
     21 C         138.2624  145.8945  155.1870 C.3     1  UNL1        0.0894
     22 C         138.9213  147.1471  155.6838 C.3     1  UNL1        0.0862
     23 N         139.9844  147.0675  156.7390 N.3     1  UNL1       -0.2951
     24 C         140.3885  145.7353  157.2974 C.3     1  UNL1        0.0864
     25 C         139.7296  144.4827  156.8006 C.3     1  UNL1        0.0894
     26 H         139.6612  147.6307  157.5256 H       1  UNL1        0.1233
     27 C         136.5141  143.2459  155.1259 C.3     1  UNL1        0.0188
     28 C         138.0077  143.3097  155.2486 C.3     1  UNL1        0.0722
@<TRIPOS>BOND
     1    27    28    1
     2    28    20    1
     3    20    21    1
     4    21    22    1
     5    22    23    1
     6    23    24    1
     7    24    19    1
     8    19     1    1
     9     1     2    1
    10     2     3    1
    11     3     4    1
    12     4     5   am
    13     5     6    2
    14     5     7   am
    15     7    11    1
    16    11    12   ar
    17    12    13   ar
    18    13    14   ar
    19    14    15    1
    20    14    16   ar
    21    16    17    1
    22    16    18   ar
    23     4     8    1
    24     8     9    1
    25    24    25    1
    26    25    20    1
    27     9     1    1
    28    18    11   ar
    29    23    26    1
    30     7    10    1
@<TRIPOS>MOLECULE
*****
 28 30 0 0 0
SMALL
GASTEIGER

@<TRIPOS>ATOM
      1 N         142.1673  137.7690  158.5399 N.3     1  UNL1       -0.2686
      2 C         142.8979  137.4226  159.8033 C.3     1  UNL1        0.0940
      3 C         142.3316  137.8272  161.1322 C.3     1  UNL1        0.1123
      4 N         141.0347  138.5782  161.1975 N.am    1  UNL1       -0.2611
      5 C         140.4685  138.9827  162.5262 C.2     1  UNL1        0.3078
      6 O         139.1716  139.7337  162.5916 O.2     1  UNL1       -0.2522
      7 N         141.1991  138.6363  163.7897 N.am    1  UNL1       -0.2681
      8 C         140.3042  138.9246  159.9340 C.3     1  UNL1        0.1123
      9 C         140.8704  138.5200  158.6053 C.3     1  UNL1        0.0940
     10 H         142.0502  138.1435  163.7468 H       1  UNL1        0.1564
     11 C         140.6327  139.0409  165.1185 C.ar    1  UNL1        0.0525
     12 C         141.4114  139.9534  166.0191 C.ar    1  UNL1        0.0156
     13 C         140.8451  140.3579  167.3479 C.ar    1  UNL1        0.0135
     14 C         139.5002  139.8501  167.7760 C.ar    1  UNL1        0.0683
     15 CL        138.9339  140.2547  169.1048 Cl      1  UNL1       -0.0814
     16 C         138.7216  138.9377  166.8753 C.ar    1  UNL1        0.0694
     17 CL        137.3766  138.4298  167.3035 Cl      1  UNL1       -0.0813
     18 C         139.2878  138.5331  165.5466 C.ar    1  UNL1        0.0270
     19 C         142.7336  137.3645  157.2111 C.3     1  UNL1        0.0895
     20 N         143.0695  133.4507  156.6456 N.3     1  UNL1       -0.2703
     21 C         141.9994  133.2196  155.6203 C.3     1  UNL1        0.0894
     22 C         141.1739  134.3701  155.1252 C.3     1  UNL1        0.0862
     23 N         141.4187  135.7517  155.6555 N.3     1  UNL1       -0.2951
     24 C         142.4888  135.9828  156.6808 C.3     1  UNL1        0.0864
     25 C         143.3143  134.8324  157.1758 C.3     1  UNL1        0.0894
     26 H         140.5415  136.0681  156.0689 H       1  UNL1        0.1233
     27 C         145.1002  132.5554  157.9964 C.3     1  UNL1        0.0188
     28 C         143.8950  132.3003  157.1406 C.3     1  UNL1        0.0722
@<TRIPOS>BOND
     1    27    28    1
     2    28    20    1
     3    20    21    1
     4    21    22    1
     5    22    23    1
     6    23    24    1
     7    24    19    1
     8    19     1    1
     9     1     2    1
    10     2     3    1
    11     3     4    1
    12     4     5   am
    13     5     6    2
    14     5     7   am
    15     7    11    1
    16    11    12   ar
    17    12    13   ar
    18    13    14   ar
    19    14    15    1
    20    14    16   ar
    21    16    17    1
    22    16    18   ar
    23     4     8    1
    24     8     9    1
    25    24    25    1
    26    25    20    1
    27     9     1    1
    28    18    11   ar
    29    23    26    1
    30     7    10    1
@<TRIPOS>MOLECULE
*****
 28 30 0 0 0
SMALL
GASTEIGER

@<TRIPOS>ATOM
      1 N         141.2636  144.9757  159.6281 N.3     1  UNL1       -0.2686
      2 C         141.9015  143.7232  160.1519 C.3     1  UNL1        0.0940
      3 C         141.5474  143.2163  161.5186 C.3     1  UNL1        0.1123
      4 N         140.5555  143.9618  162.3614 N.am    1  UNL1       -0.2611
      5 C         140.2015  143.4548  163.7280 C.2     1  UNL1        0.3078
      6 O         139.2096  144.2004  164.5709 O.2     1  UNL1       -0.2522
      7 N         140.8394  142.2023  164.2518 N.am    1  UNL1       -0.2681
      8 C         139.9176  145.2143  161.8376 C.3     1  UNL1        0.1123
      9 C         140.2716  145.7212  160.4710 C.3     1  UNL1        0.0940
     10 H         141.4904  141.7130  163.6987 H       1  UNL1        0.1564
     11 C         140.4854  141.6954  165.6185 C.ar    1  UNL1        0.0525
     12 C         141.0913  142.3313  166.8345 C.ar    1  UNL1        0.0156
     13 C         140.7373  141.8244  168.2011 C.ar    1  UNL1        0.0135
     14 C         139.7774  140.6816  168.3517 C.ar    1  UNL1        0.0683
     15 CL        139.4234  140.1747  169.7184 Cl      1  UNL1       -0.0814
     16 C         139.1715  140.0458  167.1358 C.ar    1  UNL1        0.0694
     17 CL        138.2116  138.9030  167.2865 Cl      1  UNL1       -0.0813
     18 C         139.5255  140.5527  165.7691 C.ar    1  UNL1        0.0270
     19 C         141.6176  145.4827  158.2615 C.3     1  UNL1        0.0895
     20 N         139.2315  147.1132  155.5415 N.3     1  UNL1       -0.2703
     21 C         138.4194  145.9223  155.1265 C.3     1  UNL1        0.0894
     22 C         138.6733  144.5849  155.7565 C.3     1  UNL1        0.0862
     23 N         139.7393  144.4383  156.8015 N.3     1  UNL1       -0.2951
     24 C         140.5514  145.6292  157.2165 C.3     1  UNL1        0.0864
     25 C         140.2976  146.9666  156.5865 C.3     1  UNL1        0.0894
     26 H         140.3969  143.7396  156.4553 H       1  UNL1        0.1233
     27 C         138.5263  149.6044  155.7571 C.3     1  UNL1        0.0188
     28 C         138.9776  148.4506  154.9116 C.3     1  UNL1        0.0722
@<TRIPOS>BOND
     1    27    28    1
     2    28    20    1
     3    20    21    1
     4    21    22    1
     5    22    23    1
     6    23    24    1
     7    24    19    1
     8    19     1    1
     9     1     2    1
    10     2     3    1
    11     3     4    1
    12     4     5   am
    13     5     6    2
    14     5     7   am
    15     7    11    1
    16    11    12   ar
    17    12    13   ar
    18    13    14   ar
    19    14    15    1
    20    14    16   ar
    21    16    17    1
    22    16    18   ar
    23     4     8    1
    24     8     9    1
    25    24    25    1
    26    25    20    1
    27     9     1    1
    28    18    11   ar
    29    23    26    1
    30     7    10    1
@<TRIPOS>MOLECULE
*****
 28 30 0 0 0
SMALL
GASTEIGER

@<TRIPOS>ATOM
      1 N         142.5218  142.0363  159.2027 N.3     1  UNL1       -0.2686
      2 C         141.6205  140.8583  159.4262 C.3     1  UNL1        0.0940
      3 C         141.8628  139.5772  158.6845 C.3     1  UNL1        0.1123
      4 N         143.0063  139.4742  157.7192 N.am    1  UNL1       -0.2611
      5 C         143.2485  138.1931  156.9776 C.2     1  UNL1        0.3078
      6 O         144.3921  138.0900  156.0122 O.2     1  UNL1       -0.2522
      7 N         142.3473  137.0151  157.2011 N.am    1  UNL1       -0.2681
      8 C         143.9076  140.6522  157.4957 C.3     1  UNL1        0.1123
      9 C         143.6653  141.9333  158.2373 C.3     1  UNL1        0.0940
     10 H         141.5968  137.0827  157.8347 H       1  UNL1        0.1564
     11 C         142.5896  135.7339  156.4594 C.ar    1  UNL1        0.0525
     12 C         143.3372  134.6143  157.1208 C.ar    1  UNL1        0.0156
     13 C         143.5795  133.3332  156.3791 C.ar    1  UNL1        0.0135
     14 C         143.0742  133.1718  154.9761 C.ar    1  UNL1        0.0683
     15 CL        143.3165  131.8907  154.2344 Cl      1  UNL1       -0.0814
     16 C         142.3265  134.2914  154.3147 C.ar    1  UNL1        0.0694
     17 CL        141.8212  134.1300  152.9116 Cl      1  UNL1       -0.0813
     18 C         142.0842  135.5725  155.0564 C.ar    1  UNL1        0.0270
     19 C         142.2795  143.3174  159.9443 C.3     1  UNL1        0.0895
     20 N         144.4871  142.7339  163.1903 N.3     1  UNL1       -0.2703
     21 C         144.2269  144.0054  163.9423 C.3     1  UNL1        0.0894
     22 C         143.3177  145.0476  163.3617 C.3     1  UNL1        0.0862
     23 N         142.6685  144.8183  162.0291 N.3     1  UNL1       -0.2951
     24 C         142.9287  143.5468  161.2771 C.3     1  UNL1        0.0864
     25 C         143.8380  142.5046  161.8577 C.3     1  UNL1        0.0894
     26 H         142.9621  145.5842  161.4229 H       1  UNL1        0.1233
     27 C         145.0313  140.2401  163.6745 C.3     1  UNL1        0.0188
     28 C         145.3964  141.6917  163.7709 C.3     1  UNL1        0.0722
@<TRIPOS>BOND
     1    27    28    1
     2    28    20    1
     3    20    21    1
     4    21    22    1
     5    22    23    1
     6    23    24    1
     7    24    19    1
     8    19     1    1
     9     1     2    1
    10     2     3    1
    11     3     4    1
    12     4     5   am
    13     5     6    2
    14     5     7   am
    15     7    11    1
    16    11    12   ar
    17    12    13   ar
    18    13    14   ar
    19    14    15    1
    20    14    16   ar
    21    16    17    1
    22    16    18   ar
    23     4     8    1
    24     8     9    1
    25    24    25    1
    26    25    20    1
    27     9     1    1
    28    18    11   ar
    29    23    26    1
    30     7    10    1
@<TRIPOS>MOLECULE
*****
 28 30 0 0 0
SMALL
GASTEIGER

@<TRIPOS>ATOM
      1 N         142.6382  138.4417  164.9388 N.3     1  UNL1       -0.2686
      2 C         143.2888  139.0027  163.7091 C.3     1  UNL1        0.0940
      3 C         142.5509  139.0011  162.4031 C.3     1  UNL1        0.1123
      4 N         141.1625  138.4386  162.3268 N.am    1  UNL1       -0.2611
      5 C         140.4247  138.4371  161.0208 C.2     1  UNL1        0.3078
      6 O         139.0362  137.8745  160.9445 O.2     1  UNL1       -0.2522
      7 N         141.0753  138.9980  159.7912 N.am    1  UNL1       -0.2681
      8 C         140.5119  137.8776  163.5564 C.3     1  UNL1        0.1123
      9 C         141.2497  137.8792  164.8624 C.3     1  UNL1        0.0940
     10 H         141.9866  139.3672  159.8413 H       1  UNL1        0.1564
     11 C         140.3374  138.9965  158.4852 C.ar    1  UNL1        0.0525
     12 C         139.5041  140.1805  158.0931 C.ar    1  UNL1        0.0156
     13 C         138.7663  140.1790  156.7872 C.ar    1  UNL1        0.0135
     14 C         138.8617  138.9935  155.8733 C.ar    1  UNL1        0.0683
     15 CL        138.1238  138.9919  154.5673 Cl      1  UNL1       -0.0814
     16 C         139.6950  137.8094  156.2653 C.ar    1  UNL1        0.0694
     17 CL        139.7904  136.6238  155.3513 Cl      1  UNL1       -0.0813
     18 C         140.4328  137.8109  157.5713 C.ar    1  UNL1        0.0270
     19 C         143.3760  138.4432  166.2448 C.3     1  UNL1        0.0895
     20 N         141.5365  141.2625  168.3466 N.3     1  UNL1       -0.2703
     21 C         141.7521  140.7608  169.7436 C.3     1  UNL1        0.0894
     22 C         142.5090  139.4865  169.9744 C.3     1  UNL1        0.0862
     23 N         143.0503  138.7140  168.8081 N.3     1  UNL1       -0.2951
     24 C         142.8347  139.2158  167.4111 C.3     1  UNL1        0.0864
     25 C         142.0777  140.4900  167.1804 C.3     1  UNL1        0.0894
     26 H         142.6361  137.7830  168.8538 H       1  UNL1        0.1233
     27 C         140.4317  143.4230  169.2750 C.3     1  UNL1        0.0188
     28 C         140.7795  142.5368  168.1159 C.3     1  UNL1        0.0722
@<TRIPOS>BOND
     1    27    28    1
     2    28    20    1
     3    20    21    1
     4    21    22    1
     5    22    23    1
     6    23    24    1
     7    24    19    1
     8    19     1    1
     9     1     2    1
    10     2     3    1
    11     3     4    1
    12     4     5   am
    13     5     6    2
    14     5     7   am
    15     7    11    1
    16    11    12   ar
    17    12    13   ar
    18    13    14   ar
    19    14    15    1
    20    14    16   ar
    21    16    17    1
    22    16    18   ar
    23     4     8    1
    24     8     9    1
    25    24    25    1
    26    25    20    1
    27     9     1    1
    28    18    11   ar
    29    23    26    1
    30     7    10    1
@<TRIPOS>MOLECULE
*****
 28 30 0 0 0
SMALL
GASTEIGER

@<TRIPOS>ATOM
      1 N         140.9817  141.2602  157.7545 N.3     1  UNL1       -0.2686
      2 C         140.2312  139.9768  157.9537 C.3     1  UNL1        0.0940
      3 C         140.8696  138.6699  157.5869 C.3     1  UNL1        0.1123
      4 N         142.2585  138.6464  157.0209 N.am    1  UNL1       -0.2611
      5 C         142.8968  137.3395  156.6541 C.2     1  UNL1        0.3078
      6 O         144.2858  137.3159  156.0881 O.2     1  UNL1       -0.2522
      7 N         142.1462  136.0562  156.8533 N.am    1  UNL1       -0.2681
      8 C         143.0090  139.9297  156.8217 C.3     1  UNL1        0.1123
      9 C         142.3707  141.2366  157.1884 C.3     1  UNL1        0.0940
     10 H         141.2346  136.0716  157.2248 H       1  UNL1        0.1564
     11 C         142.7846  134.7492  156.4865 C.ar    1  UNL1        0.0525
     12 C         142.4621  134.0994  155.1736 C.ar    1  UNL1        0.0156
     13 C         143.1005  132.7925  154.8068 C.ar    1  UNL1        0.0135
     14 C         144.0613  132.1356  155.7529 C.ar    1  UNL1        0.0683
     15 CL        144.6997  130.8286  155.3861 Cl      1  UNL1       -0.0814
     16 C         144.3839  132.7854  157.0657 C.ar    1  UNL1        0.0694
     17 CL        145.3448  132.1284  158.0118 Cl      1  UNL1       -0.0813
     18 C         143.7455  134.0923  157.4326 C.ar    1  UNL1        0.0270
     19 C         140.3434  142.5671  158.1212 C.3     1  UNL1        0.0895
     20 N         141.5560  143.7286  161.7171 N.3     1  UNL1       -0.2703
     21 C         140.2413  143.8931  162.4202 C.3     1  UNL1        0.0894
     22 C         138.9606  143.6156  161.6903 C.3     1  UNL1        0.0862
     23 N         138.9946  143.1736  160.2573 N.3     1  UNL1       -0.2951
     24 C         140.3093  143.0091  159.5543 C.3     1  UNL1        0.0864
     25 C         141.5901  143.2866  160.2841 C.3     1  UNL1        0.0894
     26 H         138.4597  143.8597  159.7248 H       1  UNL1        0.1233
     27 C         142.8768  145.0536  163.5199 C.3     1  UNL1        0.0188
     28 C         142.8368  144.0061  162.4470 C.3     1  UNL1        0.0722
@<TRIPOS>BOND
     1    27    28    1
     2    28    20    1
     3    20    21    1
     4    21    22    1
     5    22    23    1
     6    23    24    1
     7    24    19    1
     8    19     1    1
     9     1     2    1
    10     2     3    1
    11     3     4    1
    12     4     5   am
    13     5     6    2
    14     5     7   am
    15     7    11    1
    16    11    12   ar
    17    12    13   ar
    18    13    14   ar
    19    14    15    1
    20    14    16   ar
    21    16    17    1
    22    16    18   ar
    23     4     8    1
    24     8     9    1
    25    24    25    1
    26    25    20    1
    27     9     1    1
    28    18    11   ar
    29    23    26    1
    30     7    10    1
@<TRIPOS>MOLECULE
*****
 28 30 0 0 0
SMALL
GASTEIGER

@<TRIPOS>ATOM
      1 N         141.5596  143.0111  158.8734 N.3     1  UNL1       -0.2686
      2 C         142.8498  142.3516  158.4854 C.3     1  UNL1        0.0940
      3 C         142.8395  140.9717  157.8972 C.3     1  UNL1        0.1123
      4 N         141.5391  140.2514  157.6971 N.am    1  UNL1       -0.2611
      5 C         141.5289  138.8716  157.1089 C.2     1  UNL1        0.3078
      6 O         140.2285  138.1512  156.9087 O.2     1  UNL1       -0.2522
      7 N         142.8191  138.2121  156.7209 N.am    1  UNL1       -0.2681
      8 C         140.2490  140.9109  158.0851 C.3     1  UNL1        0.1123
      9 C         140.2592  142.2907  158.6732 C.3     1  UNL1        0.0940
     10 H         143.6726  138.6849  156.8522 H       1  UNL1        0.1564
     11 C         142.8088  136.8322  156.1327 C.ar    1  UNL1        0.0525
     12 C         142.6076  136.6471  154.6578 C.ar    1  UNL1        0.0156
     13 C         142.5973  135.2673  154.0696 C.ar    1  UNL1        0.0135
     14 C         142.7882  134.0726  154.9563 C.ar    1  UNL1        0.0683
     15 CL        142.7780  132.6927  154.3681 Cl      1  UNL1       -0.0814
     16 C         142.9894  134.2577  156.4312 C.ar    1  UNL1        0.0694
     17 CL        143.1803  133.0630  157.3179 Cl      1  UNL1       -0.0813
     18 C         142.9997  135.6375  157.0194 C.ar    1  UNL1        0.0270
     19 C         141.5698  144.3909  159.4616 C.3     1  UNL1        0.0895
     20 N         140.1442  144.7736  163.1454 N.3     1  UNL1       -0.2703
     21 C         141.4149  144.9351  163.9258 C.3     1  UNL1        0.0894
     22 C         142.7373  144.9151  163.2182 C.3     1  UNL1        0.0862
     23 N         142.7890  144.7337  161.7301 N.3     1  UNL1       -0.2951
     24 C         141.5182  144.5723  160.9497 C.3     1  UNL1        0.0864
     25 C         140.1958  144.5923  161.6574 C.3     1  UNL1        0.0894
     26 H         143.3503  143.9004  161.5543 H       1  UNL1        0.1233
     27 C         138.7736  144.8204  165.3521 C.3     1  UNL1        0.0188
     28 C         138.8217  144.7936  163.8531 C.3     1  UNL1        0.0722
@<TRIPOS>BOND
     1    27    28    1
     2    28    20    1
     3    20    21    1
     4    21    22    1
     5    22    23    1
     6    23    24    1
     7    24    19    1
     8    19     1    1
     9     1     2    1
    10     2     3    1
    11     3     4    1
    12     4     5   am
    13     5     6    2
    14     5     7   am
    15     7    11    1
    16    11    12   ar
    17    12    13   ar
    18    13    14   ar
    19    14    15    1
    20    14    16   ar
    21    16    17    1
    22    16    18   ar
    23     4     8    1
    24     8     9    1
    25    24    25    1
    26    25    20    1
    27     9     1    1
    28    18    11   ar
    29    23    26    1
    30     7    10    1
@<TRIPOS>MOLECULE
*****
 28 30 0 0 0
SMALL
GASTEIGER

@<TRIPOS>ATOM
      1 N         142.8487  142.3067  160.0846 N.3     1  UNL1       -0.2686
      2 C         141.7078  141.6644  160.8168 C.3     1  UNL1        0.0940
      3 C         141.7212  141.5973  162.3153 C.3     1  UNL1        0.1123
      4 N         142.8753  142.1724  163.0815 N.am    1  UNL1       -0.2611
      5 C         142.8886  142.1052  164.5799 C.2     1  UNL1        0.3078
      6 O         144.0427  142.6803  165.3463 O.2     1  UNL1       -0.2522
      7 N         141.7477  141.4630  165.3121 N.am    1  UNL1       -0.2681
      8 C         144.0161  142.8146  162.3494 C.3     1  UNL1        0.1123
      9 C         144.0028  142.8818  160.8510 C.3     1  UNL1        0.0940
     10 H         140.9902  141.0855  164.8091 H       1  UNL1        0.1564
     11 C         141.7611  141.3959  166.8106 C.ar    1  UNL1        0.0525
     12 C         142.4771  140.2754  167.5048 C.ar    1  UNL1        0.0156
     13 C         142.4904  140.2082  169.0032 C.ar    1  UNL1        0.0135
     14 C         141.7878  141.2615  169.8074 C.ar    1  UNL1        0.0683
     15 CL        141.8011  141.1944  171.3059 Cl      1  UNL1       -0.0814
     16 C         141.0718  142.3820  169.1132 C.ar    1  UNL1        0.0694
     17 CL        140.3691  143.4353  169.9175 Cl      1  UNL1       -0.0813
     18 C         141.0584  142.4492  167.6148 C.ar    1  UNL1        0.0270
     19 C         142.8354  142.3738  158.5862 C.3     1  UNL1        0.0895
     20 N         140.1873  144.4338  156.4664 N.3     1  UNL1       -0.2703
     21 C         140.7968  145.8038  156.5056 C.3     1  UNL1        0.0894
     22 C         142.0858  146.0305  157.2384 C.3     1  UNL1        0.0862
     23 N         142.7654  144.8872  157.9319 N.3     1  UNL1       -0.2951
     24 C         142.1559  143.5172  157.8927 C.3     1  UNL1        0.0864
     25 C         140.8668  143.2905  157.1599 C.3     1  UNL1        0.0894
     26 H         142.8462  145.1455  158.9154 H       1  UNL1        0.1233
     27 C         138.1058  145.3771  155.2303 C.3     1  UNL1        0.0188
     28 C         138.8982  144.2072  155.7336 C.3     1  UNL1        0.0722
@<TRIPOS>BOND
     1    27    28    1
     2    28    20    1
     3    20    21    1
     4    21    22    1
     5    22    23    1
     6    23    24    1
     7    24    19    1
     8    19     1    1
     9     1     2    1
    10     2     3    1
    11     3     4    1
    12     4     5   am
    13     5     6    2
    14     5     7   am
    15     7    11    1
    16    11    12   ar
    17    12    13   ar
    18    13    14   ar
    19    14    15    1
    20    14    16   ar
    21    16    17    1
    22    16    18   ar
    23     4     8    1
    24     8     9    1
    25    24    25    1
    26    25    20    1
    27     9     1    1
    28    18    11   ar
    29    23    26    1
    30     7    10    1
