@<TRIPOS>MOLECULE
*****
 31 34 0 0 0
SMALL
GASTEIGER

@<TRIPOS>ATOM
      1 C         142.0614  142.6734  163.4435 C.ar    1  UNL1        0.0310
      2 C         142.0177  142.9107  161.9630 C.ar    1  UNL1        0.0193
      3 C         141.8989  144.3884  161.7337 C.ar    1  UNL1        0.0574
      4 C         141.8693  145.0643  163.0725 C.ar    1  UNL1        0.0498
      5 S         141.9698  144.0044  164.1292 S.2     1  UNL1       -0.0875
      6 C         138.5123  139.3517  165.8141 C.3     1  UNL1        0.0320
      7 C         139.7337  140.0142  165.2492 C.3     1  UNL1        0.1155
      8 C         141.0704  139.3428  165.3604 C.3     1  UNL1        0.0327
      9 C         142.2919  140.0053  164.7955 C.3     1  UNL1        0.0411
     10 C         143.6286  139.3338  164.9067 C.3     1  UNL1        0.0672
     11 S         144.8500  139.9963  164.3419 S.3     1  UNL1       -0.0807
     12 C         144.7348  141.3304  163.6658 C.2     1  UNL1        0.1482
     13 N         145.9562  141.9930  163.1009 N.pl3   1  UNL1       -0.3380
     14 N         143.3981  142.0019  163.5546 N.2     1  UNL1       -0.2479
     15 C         142.1766  141.3393  164.1195 C.3     1  UNL1        0.1385
     16 C         140.8400  142.0108  164.0083 C.3     1  UNL1        0.1690
     17 O         139.6185  141.3483  164.5732 O.3     1  UNL1       -0.3539
     18 H         146.8335  141.5523  163.1739 H       1  UNL1        0.1442
     19 H         145.8806  142.8686  162.6572 H       1  UNL1        0.1442
     20 N         141.8231  145.0704  160.3999 N.am    1  UNL1       -0.2787
     21 C         140.5775  144.9612  159.5714 C.2     1  UNL1        0.2673
     22 O         139.4076  144.1698  160.0768 O.2     1  UNL1       -0.2682
     23 H         142.5909  145.5897  160.0682 H       1  UNL1        0.1552
     24 C         140.5017  145.6432  158.2376 C.ar    1  UNL1        0.1348
     25 C         141.5231  145.3408  157.1815 C.ar    1  UNL1        0.0245
     26 C         141.4473  146.0228  155.8477 C.ar    1  UNL1        0.0135
     27 C         140.3502  147.0071  155.5699 C.ar    1  UNL1        0.0876
     28 C         139.3287  147.3095  156.6260 C.ar    1  UNL1        0.1092
     29 N         139.4046  146.6275  157.9598 N.ar    1  UNL1       -0.2385
     30 C         140.2744  147.6891  154.2361 C.1     1  UNL1        0.1020
     31 N         140.1986  148.3711  152.9021 N.1     1  UNL1       -0.1908
@<TRIPOS>BOND
     1     7     6    1
     2     7     8    1
     3     9     8    1
     4     9    10    1
     5    10    11    1
     6    11    12    1
     7    12    13    1
     8    12    14    2
     9    14    15    1
    10    15     1    1
    11     1     2   ar
    12     2     3   ar
    13     3    20    1
    14    20    21   am
    15    21    22    2
    16    21    24    1
    17    24    25   ar
    18    25    26   ar
    19    26    27   ar
    20    27    30    1
    21    30    31    3
    22    27    28   ar
    23    28    29   ar
    24     3     4   ar
    25     4     5   ar
    26    15    16    1
    27    16    17    1
    28    17     7    1
    29    15     9    1
    30     5     1   ar
    31    29    24   ar
    32    13    18    1
    33    13    19    1
    34    20    23    1
@<TRIPOS>MOLECULE
*****
 31 34 0 0 0
SMALL
GASTEIGER

@<TRIPOS>ATOM
      1 C         139.9455  139.3575  160.2971 C.ar    1  UNL1        0.0310
      2 C         140.4136  140.0739  161.5290 C.ar    1  UNL1        0.0193
      3 C         140.0198  139.2524  162.7208 C.ar    1  UNL1        0.0574
      4 C         139.3083  138.0283  162.2254 C.ar    1  UNL1        0.0498
      5 S         139.2623  138.0932  160.7275 S.2     1  UNL1       -0.0875
      6 C         136.5693  141.1639  156.4777 C.3     1  UNL1        0.0320
      7 C         137.7556  140.7171  157.2795 C.3     1  UNL1        0.1155
      8 C         139.1248  140.7362  156.6673 C.3     1  UNL1        0.0327
      9 C         140.3112  140.2893  157.4691 C.3     1  UNL1        0.0411
     10 C         141.6805  140.3085  156.8569 C.3     1  UNL1        0.0672
     11 S         142.8668  139.8616  157.6587 S.3     1  UNL1       -0.0807
     12 C         142.6839  139.3957  159.0727 C.2     1  UNL1        0.1482
     13 N         143.8703  138.9488  159.8745 N.pl3   1  UNL1       -0.3380
     14 N         141.3147  139.3766  159.6849 N.2     1  UNL1       -0.2479
     15 C         140.1283  139.8234  158.8831 C.3     1  UNL1        0.1385
     16 C         138.7591  139.8043  159.4953 C.3     1  UNL1        0.1690
     17 O         137.5728  140.2511  158.6935 O.3     1  UNL1       -0.3539
     18 H         144.7690  138.9614  159.4727 H       1  UNL1        0.1442
     19 H         143.7502  138.6430  160.8026 H       1  UNL1        0.1442
     20 N         140.2900  139.5949  164.1560 N.am    1  UNL1       -0.2787
     21 C         139.3209  140.4488  164.9185 C.2     1  UNL1        0.2673
     22 O         138.0815  140.9602  164.2459 O.2     1  UNL1       -0.2682
     23 H         141.1035  139.2593  164.5974 H       1  UNL1        0.1552
     24 C         139.5912  140.7913  166.3537 C.ar    1  UNL1        0.1348
     25 C         139.2363  139.8165  167.4371 C.ar    1  UNL1        0.0245
     26 C         139.5065  140.1590  168.8722 C.ar    1  UNL1        0.0135
     27 C         140.1317  141.4763  169.2240 C.ar    1  UNL1        0.0876
     28 C         140.4866  142.4511  168.1406 C.ar    1  UNL1        0.1092
     29 N         140.2164  142.1086  166.7054 N.ar    1  UNL1       -0.2385
     30 C         140.4019  141.8188  170.6591 C.1     1  UNL1        0.1020
     31 N         140.6722  142.1613  172.0943 N.1     1  UNL1       -0.1908
@<TRIPOS>BOND
     1     7     6    1
     2     7     8    1
     3     9     8    1
     4     9    10    1
     5    10    11    1
     6    11    12    1
     7    12    13    1
     8    12    14    2
     9    14    15    1
    10    15     1    1
    11     1     2   ar
    12     2     3   ar
    13     3    20    1
    14    20    21   am
    15    21    22    2
    16    21    24    1
    17    24    25   ar
    18    25    26   ar
    19    26    27   ar
    20    27    30    1
    21    30    31    3
    22    27    28   ar
    23    28    29   ar
    24     3     4   ar
    25     4     5   ar
    26    15    16    1
    27    16    17    1
    28    17     7    1
    29    15     9    1
    30     5     1   ar
    31    29    24   ar
    32    13    18    1
    33    13    19    1
    34    20    23    1
@<TRIPOS>MOLECULE
*****
 31 34 0 0 0
SMALL
GASTEIGER

@<TRIPOS>ATOM
      1 C         138.9714  142.2975  164.1882 C.ar    1  UNL1        0.0310
      2 C         139.5184  142.2579  162.7920 C.ar    1  UNL1        0.0193
      3 C         138.9079  143.3917  162.0226 C.ar    1  UNL1        0.0574
      4 C         137.9836  144.1320  162.9433 C.ar    1  UNL1        0.0498
      5 S         138.0228  143.4557  164.2817 S.2     1  UNL1       -0.0875
      6 C         140.9959  142.9093  169.1659 C.3     1  UNL1        0.0320
      7 C         140.4349  142.3882  167.8760 C.3     1  UNL1        0.1155
      8 C         140.2155  140.9155  167.6942 C.3     1  UNL1        0.0327
      9 C         139.6545  140.3944  166.4043 C.3     1  UNL1        0.0411
     10 C         139.4351  138.9216  166.2226 C.3     1  UNL1        0.0672
     11 S         138.8742  138.4005  164.9327 S.3     1  UNL1       -0.0807
     12 C         138.5326  139.3521  163.8246 C.2     1  UNL1        0.1482
     13 N         137.9716  138.8310  162.5348 N.pl3   1  UNL1       -0.3380
     14 N         138.7520  140.8248  164.0064 N.2     1  UNL1       -0.2479
     15 C         139.3130  141.3459  165.2963 C.3     1  UNL1        0.1385
     16 C         139.5324  142.8186  165.4781 C.3     1  UNL1        0.1690
     17 O         140.0934  143.3397  166.7679 O.3     1  UNL1       -0.3539
     18 H         137.8276  137.8644  162.4155 H       1  UNL1        0.1442
     19 H         137.7474  139.4556  161.8075 H       1  UNL1        0.1442
     20 N         139.1749  143.7264  160.5850 N.am    1  UNL1       -0.2787
     21 C         140.4310  144.4525  160.2048 C.2     1  UNL1        0.2673
     22 O         141.4204  144.8439  161.2623 O.2     1  UNL1       -0.2682
     23 H         138.5255  143.4694  159.8911 H       1  UNL1        0.1552
     24 C         140.6980  144.7872  158.7672 C.ar    1  UNL1        0.1348
     25 C         139.7971  144.2535  157.6931 C.ar    1  UNL1        0.0245
     26 C         140.0640  144.5882  156.2556 C.ar    1  UNL1        0.0135
     27 C         141.2318  145.4565  155.8920 C.ar    1  UNL1        0.0876
     28 C         142.1327  145.9901  156.9661 C.ar    1  UNL1        0.1092
     29 N         141.8657  145.6554  158.4037 N.ar    1  UNL1       -0.2385
     30 C         141.4987  145.7912  154.4544 C.1     1  UNL1        0.1020
     31 N         141.7657  146.1259  153.0167 N.1     1  UNL1       -0.1908
@<TRIPOS>BOND
     1     7     6    1
     2     7     8    1
     3     9     8    1
     4     9    10    1
     5    10    11    1
     6    11    12    1
     7    12    13    1
     8    12    14    2
     9    14    15    1
    10    15     1    1
    11     1     2   ar
    12     2     3   ar
    13     3    20    1
    14    20    21   am
    15    21    22    2
    16    21    24    1
    17    24    25   ar
    18    25    26   ar
    19    26    27   ar
    20    27    30    1
    21    30    31    3
    22    27    28   ar
    23    28    29   ar
    24     3     4   ar
    25     4     5   ar
    26    15    16    1
    27    16    17    1
    28    17     7    1
    29    15     9    1
    30     5     1   ar
    31    29    24   ar
    32    13    18    1
    33    13    19    1
    34    20    23    1
@<TRIPOS>MOLECULE
*****
 31 34 0 0 0
SMALL
GASTEIGER

@<TRIPOS>ATOM
      1 C         139.9753  142.9587  163.9539 C.ar    1  UNL1        0.0310
      2 C         140.3230  142.9692  162.4948 C.ar    1  UNL1        0.0193
      3 C         139.5540  144.0801  161.8430 C.ar    1  UNL1        0.0574
      4 C         138.7311  144.7562  162.8994 C.ar    1  UNL1        0.0498
      5 S         138.9915  144.0632  164.2039 S.2     1  UNL1       -0.0875
      6 C         137.8896  138.7577  166.6467 C.3     1  UNL1        0.0320
      7 C         138.7652  139.8419  166.0919 C.3     1  UNL1        0.1155
      8 C         140.1819  139.9778  166.5657 C.3     1  UNL1        0.0327
      9 C         141.0575  141.0621  166.0109 C.3     1  UNL1        0.0411
     10 C         142.4742  141.1980  166.4847 C.3     1  UNL1        0.0672
     11 S         143.3498  142.2822  165.9300 S.3     1  UNL1       -0.0807
     12 C         142.8087  143.2306  164.9014 C.2     1  UNL1        0.1482
     13 N         143.6843  144.3148  164.3467 N.pl3   1  UNL1       -0.3380
     14 N         141.3920  143.0946  164.4277 N.2     1  UNL1       -0.2479
     15 C         140.5164  142.0104  164.9824 C.3     1  UNL1        0.1385
     16 C         139.0997  141.8745  164.5087 C.3     1  UNL1        0.1690
     17 O         138.2241  140.7902  165.0634 O.3     1  UNL1       -0.3539
     18 H         144.6141  144.4040  164.6576 H       1  UNL1        0.1442
     19 H         143.3291  144.9372  163.6716 H       1  UNL1        0.1442
     20 N         139.5999  144.4500  160.3901 N.am    1  UNL1       -0.2787
     21 C         140.8976  144.8643  159.7623 C.2     1  UNL1        0.2673
     22 O         142.1495  144.9087  160.5875 O.2     1  UNL1       -0.2682
     23 H         138.7783  144.4208  159.8485 H       1  UNL1        0.1552
     24 C         140.9435  145.2341  158.3093 C.ar    1  UNL1        0.1348
     25 C         141.9580  144.5988  157.4053 C.ar    1  UNL1        0.0245
     26 C         142.0039  144.9686  155.9524 C.ar    1  UNL1        0.0135
     27 C         141.0354  145.9738  155.4034 C.ar    1  UNL1        0.0876
     28 C         140.0208  146.6091  156.3073 C.ar    1  UNL1        0.1092
     29 N         139.9749  146.2393  157.7603 N.ar    1  UNL1       -0.2385
     30 C         141.0813  146.3436  153.9504 C.1     1  UNL1        0.1020
     31 N         141.1272  146.7135  152.4974 N.1     1  UNL1       -0.1908
@<TRIPOS>BOND
     1     7     6    1
     2     7     8    1
     3     9     8    1
     4     9    10    1
     5    10    11    1
     6    11    12    1
     7    12    13    1
     8    12    14    2
     9    14    15    1
    10    15     1    1
    11     1     2   ar
    12     2     3   ar
    13     3    20    1
    14    20    21   am
    15    21    22    2
    16    21    24    1
    17    24    25   ar
    18    25    26   ar
    19    26    27   ar
    20    27    30    1
    21    30    31    3
    22    27    28   ar
    23    28    29   ar
    24     3     4   ar
    25     4     5   ar
    26    15    16    1
    27    16    17    1
    28    17     7    1
    29    15     9    1
    30     5     1   ar
    31    29    24   ar
    32    13    18    1
    33    13    19    1
    34    20    23    1
@<TRIPOS>MOLECULE
*****
 31 34 0 0 0
SMALL
GASTEIGER

@<TRIPOS>ATOM
      1 C         140.3089  143.3220  163.7607 C.ar    1  UNL1        0.0310
      2 C         139.8583  142.5230  162.5738 C.ar    1  UNL1        0.0193
      3 C         138.9413  143.3840  161.7565 C.ar    1  UNL1        0.0574
      4 C         138.8251  144.7151  162.4384 C.ar    1  UNL1        0.0498
      5 S         139.6704  144.6768  163.6770 S.2     1  UNL1       -0.0875
      6 C         139.6927  140.1784  168.1182 C.3     1  UNL1        0.0320
      7 C         140.2069  141.0686  167.0260 C.3     1  UNL1        0.1155
      8 C         141.6476  141.4862  167.0145 C.3     1  UNL1        0.0327
      9 C         142.1618  142.3764  165.9223 C.3     1  UNL1        0.0411
     10 C         143.6025  142.7939  165.9109 C.3     1  UNL1        0.0672
     11 S         144.1167  143.6842  164.8186 S.3     1  UNL1       -0.0807
     12 C         143.1902  144.1570  163.7378 C.2     1  UNL1        0.1482
     13 N         143.7044  145.0473  162.6456 N.pl3   1  UNL1       -0.3380
     14 N         141.7496  143.7395  163.7493 N.2     1  UNL1       -0.2479
     15 C         141.2354  142.8492  164.8415 C.3     1  UNL1        0.1385
     16 C         139.7947  142.4317  164.8530 C.3     1  UNL1        0.1690
     17 O         139.2805  141.5414  165.9452 O.3     1  UNL1       -0.3539
     18 H         144.6500  145.3213  162.6381 H       1  UNL1        0.1442
     19 H         143.0963  145.3576  161.9362 H       1  UNL1        0.1442
     20 N         138.2600  142.9842  160.4814 N.am    1  UNL1       -0.2787
     21 C         139.0252  142.9809  159.1914 C.2     1  UNL1        0.2673
     22 O         140.4719  143.3775  159.1765 O.2     1  UNL1       -0.2682
     23 H         137.3106  142.7239  160.4912 H       1  UNL1        0.1552
     24 C         138.3440  142.5810  157.9163 C.ar    1  UNL1        0.1348
     25 C         138.4806  143.4375  156.6924 C.ar    1  UNL1        0.0245
     26 C         137.7994  143.0377  155.4173 C.ar    1  UNL1        0.0135
     27 C         136.9815  141.7814  155.3659 C.ar    1  UNL1        0.0876
     28 C         136.8449  140.9249  156.5898 C.ar    1  UNL1        0.1092
     29 N         137.5261  141.3247  157.8649 N.ar    1  UNL1       -0.2385
     30 C         136.3003  141.3815  154.0908 C.1     1  UNL1        0.1020
     31 N         135.6190  140.9817  152.8156 N.1     1  UNL1       -0.1908
@<TRIPOS>BOND
     1     7     6    1
     2     7     8    1
     3     9     8    1
     4     9    10    1
     5    10    11    1
     6    11    12    1
     7    12    13    1
     8    12    14    2
     9    14    15    1
    10    15     1    1
    11     1     2   ar
    12     2     3   ar
    13     3    20    1
    14    20    21   am
    15    21    22    2
    16    21    24    1
    17    24    25   ar
    18    25    26   ar
    19    26    27   ar
    20    27    30    1
    21    30    31    3
    22    27    28   ar
    23    28    29   ar
    24     3     4   ar
    25     4     5   ar
    26    15    16    1
    27    16    17    1
    28    17     7    1
    29    15     9    1
    30     5     1   ar
    31    29    24   ar
    32    13    18    1
    33    13    19    1
    34    20    23    1
@<TRIPOS>MOLECULE
*****
 31 34 0 0 0
SMALL
GASTEIGER

@<TRIPOS>ATOM
      1 C         141.7562  141.2092  162.4232 C.ar    1  UNL1        0.0310
      2 C         141.4789  140.8104  161.0040 C.ar    1  UNL1        0.0193
      3 C         141.7109  139.3332  160.8838 C.ar    1  UNL1        0.0574
      4 C         142.1315  138.8192  162.2288 C.ar    1  UNL1        0.0498
      5 S         142.1595  139.9786  163.1801 S.2     1  UNL1       -0.0875
      6 C         137.7632  144.0076  164.7631 C.3     1  UNL1        0.0320
      7 C         139.0585  143.5368  164.1709 C.3     1  UNL1        0.1155
      8 C         140.2465  144.4521  164.1420 C.3     1  UNL1        0.0327
      9 C         141.5417  143.9813  163.5498 C.3     1  UNL1        0.0411
     10 C         142.7298  144.8966  163.5210 C.3     1  UNL1        0.0672
     11 S         144.0250  144.4258  162.9288 S.3     1  UNL1       -0.0807
     12 C         144.1322  143.0397  162.3654 C.2     1  UNL1        0.1482
     13 N         145.4275  142.5689  161.7733 N.pl3   1  UNL1       -0.3380
     14 N         142.9442  142.1245  162.3943 N.2     1  UNL1       -0.2479
     15 C         141.6490  142.5953  162.9865 C.3     1  UNL1        0.1385
     16 C         140.4609  141.6800  163.0154 C.3     1  UNL1        0.1690
     17 O         139.1657  142.1508  163.6076 O.3     1  UNL1       -0.3539
     18 H         146.2072  143.1696  161.7543 H       1  UNL1        0.1442
     19 H         145.4978  141.6592  161.4035 H       1  UNL1        0.1442
     20 N         141.5504  138.5140  159.6376 N.am    1  UNL1       -0.2787
     21 C         142.6048  138.5558  158.5716 C.2     1  UNL1        0.2673
     22 O         143.8198  139.4169  158.7520 O.2     1  UNL1       -0.2682
     23 H         140.7529  137.9489  159.5193 H       1  UNL1        0.1552
     24 C         142.4443  137.7366  157.3254 C.ar    1  UNL1        0.1348
     25 C         141.0734  137.3610  156.8461 C.ar    1  UNL1        0.0245
     26 C         140.9130  136.5418  155.5999 C.ar    1  UNL1        0.0135
     27 C         142.1232  136.0982  154.8329 C.ar    1  UNL1        0.0876
     28 C         143.4941  136.4739  155.3122 C.ar    1  UNL1        0.1092
     29 N         143.6546  137.2931  156.5584 N.ar    1  UNL1       -0.2385
     30 C         141.9627  135.2791  153.5867 C.1     1  UNL1        0.1020
     31 N         141.8022  134.4598  152.3404 N.1     1  UNL1       -0.1908
@<TRIPOS>BOND
     1     7     6    1
     2     7     8    1
     3     9     8    1
     4     9    10    1
     5    10    11    1
     6    11    12    1
     7    12    13    1
     8    12    14    2
     9    14    15    1
    10    15     1    1
    11     1     2   ar
    12     2     3   ar
    13     3    20    1
    14    20    21   am
    15    21    22    2
    16    21    24    1
    17    24    25   ar
    18    25    26   ar
    19    26    27   ar
    20    27    30    1
    21    30    31    3
    22    27    28   ar
    23    28    29   ar
    24     3     4   ar
    25     4     5   ar
    26    15    16    1
    27    16    17    1
    28    17     7    1
    29    15     9    1
    30     5     1   ar
    31    29    24   ar
    32    13    18    1
    33    13    19    1
    34    20    23    1
@<TRIPOS>MOLECULE
*****
 31 34 0 0 0
SMALL
GASTEIGER

@<TRIPOS>ATOM
      1 C         141.4422  142.0629  163.1303 C.ar    1  UNL1        0.0310
      2 C         141.8949  141.6450  161.7627 C.ar    1  UNL1        0.0193
      3 C         143.3295  142.0541  161.6042 C.ar    1  UNL1        0.0574
      4 C         143.7632  142.7247  162.8739 C.ar    1  UNL1        0.0498
      5 S         142.5968  142.7302  163.8171 S.2     1  UNL1       -0.0875
      6 C         138.8487  137.7664  165.1461 C.3     1  UNL1        0.0320
      7 C         139.2574  139.1279  164.6672 C.3     1  UNL1        0.1155
      8 C         138.2989  140.2772  164.7675 C.3     1  UNL1        0.0327
      9 C         138.7076  141.6387  164.2887 C.3     1  UNL1        0.0411
     10 C         137.7490  142.7881  164.3890 C.3     1  UNL1        0.0672
     11 S         138.1577  144.1496  163.9101 S.3     1  UNL1       -0.0807
     12 C         139.5251  144.3617  163.3309 C.2     1  UNL1        0.1482
     13 N         139.9338  145.7231  162.8520 N.pl3   1  UNL1       -0.3380
     14 N         140.4836  143.2123  163.2306 N.2     1  UNL1       -0.2479
     15 C         140.0749  141.8508  163.7095 C.3     1  UNL1        0.1385
     16 C         141.0334  140.7015  163.6092 C.3     1  UNL1        0.1690
     17 O         140.6247  139.3400  164.0881 O.3     1  UNL1       -0.3539
     18 H         139.3047  146.4775  162.9179 H       1  UNL1        0.1442
     19 H         140.8312  145.8623  162.4719 H       1  UNL1        0.1442
     20 N         144.1807  141.8315  160.3893 N.am    1  UNL1       -0.2787
     21 C         144.0162  142.7125  159.1867 C.2     1  UNL1        0.2673
     22 O         143.0004  143.8163  159.1988 O.2     1  UNL1       -0.2682
     23 H         144.8473  141.1071  160.3814 H       1  UNL1        0.1552
     24 C         144.8674  142.4900  157.9718 C.ar    1  UNL1        0.1348
     25 C         144.2601  141.9185  156.7249 C.ar    1  UNL1        0.0245
     26 C         145.1113  141.6960  155.5101 C.ar    1  UNL1        0.0135
     27 C         146.5698  142.0447  155.5421 C.ar    1  UNL1        0.0876
     28 C         147.1771  142.6162  156.7890 C.ar    1  UNL1        0.1092
     29 N         146.3259  142.8387  158.0038 N.ar    1  UNL1       -0.2385
     30 C         147.4210  141.8222  154.3272 C.1     1  UNL1        0.1020
     31 N         148.2722  141.5996  153.1123 N.1     1  UNL1       -0.1908
@<TRIPOS>BOND
     1     7     6    1
     2     7     8    1
     3     9     8    1
     4     9    10    1
     5    10    11    1
     6    11    12    1
     7    12    13    1
     8    12    14    2
     9    14    15    1
    10    15     1    1
    11     1     2   ar
    12     2     3   ar
    13     3    20    1
    14    20    21   am
    15    21    22    2
    16    21    24    1
    17    24    25   ar
    18    25    26   ar
    19    26    27   ar
    20    27    30    1
    21    30    31    3
    22    27    28   ar
    23    28    29   ar
    24     3     4   ar
    25     4     5   ar
    26    15    16    1
    27    16    17    1
    28    17     7    1
    29    15     9    1
    30     5     1   ar
    31    29    24   ar
    32    13    18    1
    33    13    19    1
    34    20    23    1
@<TRIPOS>MOLECULE
*****
 31 34 0 0 0
SMALL
GASTEIGER

@<TRIPOS>ATOM
      1 C         139.6779  141.8730  159.8452 C.ar    1  UNL1        0.0310
      2 C         139.7525  142.4969  161.2072 C.ar    1  UNL1        0.0193
      3 C         140.2604  141.4601  162.1649 C.ar    1  UNL1        0.0574
      4 C         140.4997  140.1953  161.3947 C.ar    1  UNL1        0.0498
      5 S         140.1397  140.4505  159.9611 S.2     1  UNL1       -0.0875
      6 C         135.9904  140.6899  156.0699 C.3     1  UNL1        0.0320
      7 C         137.0675  141.3107  156.9093 C.3     1  UNL1        0.1155
      8 C         137.6884  142.6106  156.4915 C.3     1  UNL1        0.0327
      9 C         138.7655  143.2313  157.3308 C.3     1  UNL1        0.0411
     10 C         139.3864  144.5314  156.9130 C.3     1  UNL1        0.0672
     11 S         140.4635  145.1521  157.7523 S.3     1  UNL1       -0.0807
     12 C         140.9197  144.4728  159.0096 C.2     1  UNL1        0.1482
     13 N         141.9968  145.0936  159.8489 N.pl3   1  UNL1       -0.3380
     14 N         140.2988  143.1729  159.4274 N.2     1  UNL1       -0.2479
     15 C         139.2217  142.5522  158.5880 C.3     1  UNL1        0.1385
     16 C         138.6008  141.2522  159.0058 C.3     1  UNL1        0.1690
     17 O         137.5237  140.6315  158.1665 O.3     1  UNL1       -0.3539
     18 H         142.4043  145.9468  159.5747 H       1  UNL1        0.1442
     19 H         142.2962  144.6478  160.6741 H       1  UNL1        0.1442
     20 N         140.4888  141.6540  163.6347 N.am    1  UNL1       -0.2787
     21 C         139.5112  141.0955  164.6257 C.2     1  UNL1        0.2673
     22 O         138.3050  140.3431  164.1470 O.2     1  UNL1       -0.2682
     23 H         141.2804  142.1478  163.9489 H       1  UNL1        0.1552
     24 C         139.7396  141.2894  166.0955 C.ar    1  UNL1        0.1348
     25 C         140.2985  142.5856  166.6031 C.ar    1  UNL1        0.0245
     26 C         140.5269  142.7795  168.0728 C.ar    1  UNL1        0.0135
     27 C         140.1965  141.6773  169.0350 C.ar    1  UNL1        0.0876
     28 C         139.6376  140.3811  168.5274 C.ar    1  UNL1        0.1092
     29 N         139.4092  140.1872  167.0577 N.ar    1  UNL1       -0.2385
     30 C         140.4249  141.8712  170.5047 C.1     1  UNL1        0.1020
     31 N         140.6534  142.0651  171.9746 N.1     1  UNL1       -0.1908
@<TRIPOS>BOND
     1     7     6    1
     2     7     8    1
     3     9     8    1
     4     9    10    1
     5    10    11    1
     6    11    12    1
     7    12    13    1
     8    12    14    2
     9    14    15    1
    10    15     1    1
    11     1     2   ar
    12     2     3   ar
    13     3    20    1
    14    20    21   am
    15    21    22    2
    16    21    24    1
    17    24    25   ar
    18    25    26   ar
    19    26    27   ar
    20    27    30    1
    21    30    31    3
    22    27    28   ar
    23    28    29   ar
    24     3     4   ar
    25     4     5   ar
    26    15    16    1
    27    16    17    1
    28    17     7    1
    29    15     9    1
    30     5     1   ar
    31    29    24   ar
    32    13    18    1
    33    13    19    1
    34    20    23    1
@<TRIPOS>MOLECULE
*****
 31 34 0 0 0
SMALL
GASTEIGER

@<TRIPOS>ATOM
      1 C         138.6174  141.7333  158.0171 C.ar    1  UNL1        0.0310
      2 C         138.4492  142.0192  159.4800 C.ar    1  UNL1        0.0193
      3 C         139.4319  141.1728  160.2338 C.ar    1  UNL1        0.0574
      4 C         140.2074  140.3638  159.2367 C.ar    1  UNL1        0.0498
      5 S         139.7041  140.7102  157.8668 S.2     1  UNL1       -0.0875
      6 C         134.1363  140.3369  155.3302 C.3     1  UNL1        0.0320
      7 C         135.3696  141.0114  155.8537 C.3     1  UNL1        0.1155
      8 C         135.8217  142.3129  155.2607 C.3     1  UNL1        0.0327
      9 C         137.0550  142.9873  155.7842 C.3     1  UNL1        0.0411
     10 C         137.5071  144.2889  155.1912 C.3     1  UNL1        0.0672
     11 S         138.7404  144.9634  155.7147 S.3     1  UNL1       -0.0807
     12 C         139.5216  144.3363  156.8312 C.2     1  UNL1        0.1482
     13 N         140.7549  145.0108  157.3547 N.pl3   1  UNL1       -0.3380
     14 N         139.0695  143.0348  157.4241 N.2     1  UNL1       -0.2479
     15 C         137.8362  142.3603  156.9007 C.3     1  UNL1        0.1385
     16 C         137.3841  141.0588  157.4936 C.3     1  UNL1        0.1690
     17 O         136.1508  140.3844  156.9702 O.3     1  UNL1       -0.3539
     18 H         141.0516  145.8650  156.9655 H       1  UNL1        0.1442
     19 H         141.2676  144.5992  158.0874 H       1  UNL1        0.1442
     20 N         139.6081  141.1410  161.7230 N.am    1  UNL1       -0.2787
     21 C         138.8202  140.1696  162.5509 C.2     1  UNL1        0.2673
     22 O         137.8560  139.2299  161.8894 O.2     1  UNL1       -0.2682
     23 H         140.2408  141.7578  162.1571 H       1  UNL1        0.1552
     24 C         138.9964  140.1378  164.0401 C.ar    1  UNL1        0.1348
     25 C         138.2193  139.1564  164.8665 C.ar    1  UNL1        0.0245
     26 C         138.3955  139.1246  166.3558 C.ar    1  UNL1        0.0135
     27 C         139.3486  140.0742  167.0187 C.ar    1  UNL1        0.0876
     28 C         140.1257  141.0556  166.1923 C.ar    1  UNL1        0.1092
     29 N         139.9495  141.0874  164.7030 N.ar    1  UNL1       -0.2385
     30 C         139.5248  140.0424  168.5079 C.1     1  UNL1        0.1020
     31 N         139.7011  140.0106  169.9973 N.1     1  UNL1       -0.1908
@<TRIPOS>BOND
     1     7     6    1
     2     7     8    1
     3     9     8    1
     4     9    10    1
     5    10    11    1
     6    11    12    1
     7    12    13    1
     8    12    14    2
     9    14    15    1
    10    15     1    1
    11     1     2   ar
    12     2     3   ar
    13     3    20    1
    14    20    21   am
    15    21    22    2
    16    21    24    1
    17    24    25   ar
    18    25    26   ar
    19    26    27   ar
    20    27    30    1
    21    30    31    3
    22    27    28   ar
    23    28    29   ar
    24     3     4   ar
    25     4     5   ar
    26    15    16    1
    27    16    17    1
    28    17     7    1
    29    15     9    1
    30     5     1   ar
    31    29    24   ar
    32    13    18    1
    33    13    19    1
    34    20    23    1
