@<TRIPOS>MOLECULE
*****
 33 37 0 0 0
SMALL
GASTEIGER

@<TRIPOS>ATOM
      1 C         141.2423  143.8263  161.2770 C.2     1  UNL1        0.1253
      2 C         140.9201  145.1330  160.6146 C.2     1  UNL1        0.0701
      3 C         139.7808  145.9684  161.1186 C.2     1  UNL1        0.2372
      4 N         138.9637  145.4972  162.2849 N.2     1  UNL1       -0.0302
      5 C         139.2859  144.1905  162.9472 C.2     1  UNL1        0.4107
      6 N         138.6621  143.4724  164.1070 N.2     1  UNL1        0.0121
      7 C         139.4159  142.1931  164.3199 C.2     1  UNL1        0.3766
      8 N         140.5056  142.1206  163.2917 N.2     1  UNL1       -0.0447
      9 C         140.4252  143.3551  162.4433 C.3     1  UNL1        0.3643
     10 C         139.1302  141.1666  165.3757 C.ar    1  UNL1        0.1067
     11 C         138.3724  139.8872  165.1792 C.ar    1  UNL1        0.0837
     12 N         138.3259  139.1691  166.4954 N.ar    1  UNL1       -0.3238
     13 C         137.6662  137.8475  166.7559 C.3     1  UNL1        0.1305
     14 C         139.0550  140.0049  167.5053 C.ar    1  UNL1        0.0602
     15 C         139.3305  139.8013  168.9657 C.ar    1  UNL1        0.0173
     16 C         140.1030  140.8322  169.7340 C.ar    1  UNL1        0.0060
     17 C         140.6001  142.0667  169.0420 C.ar    1  UNL1        0.0537
     18 C         140.3246  142.2703  167.5817 C.ar    1  UNL1        0.0062
     19 C         139.5521  141.2395  166.8133 C.ar    1  UNL1        0.0248
     20 C         141.3727  143.0976  169.8103 C.2     1  UNL1        0.2491
     21 O         140.7125  144.3827  170.2142 O.2     1  UNL1       -0.2699
     22 N         142.8054  142.8436  170.1748 N.am    1  UNL1       -0.2726
     23 C         143.5779  143.8746  170.9432 C.3     1  UNL1        0.1152
     24 C         143.4655  141.5587  169.7710 C.3     1  UNL1        0.1152
     25 C         143.6530  141.1632  159.8067 C.ar    1  UNL1        0.0339
     26 C         144.6169  142.2473  160.1886 C.ar    1  UNL1        0.1191
     27 N         143.8311  143.3768  160.7858 N.ar    1  UNL1       -0.1639
     28 N         142.3817  142.9909  160.7730 N.ar    1  UNL1       -0.2276
     29 C         142.2716  141.6228  160.1679 C.ar    1  UNL1        0.0988
     30 C         144.0083  139.8501  159.1745 C.3     1  UNL1        0.1024
     31 C         142.8598  137.7733  160.2318 C.3     1  UNL1        0.0899
     32 N         142.9888  138.7522  159.1026 N.3     1  UNL1       -0.2664
     33 C         142.0983  138.6332  157.9014 C.3     1  UNL1        0.0899
@<TRIPOS>BOND
     1    31    32    1
     2    32    33    1
     3    32    30    1
     4    30    25    1
     5    25    26   ar
     6    26    27   ar
     7    27    28   ar
     8    28     1    1
     9     1     2    2
    10     2     3    1
    11     3     4    2
    12     4     5    1
    13     5     6    2
    14     6     7    1
    15     7    10    1
    16    10    11   ar
    17    11    12   ar
    18    12    13    1
    19    12    14   ar
    20    14    15   ar
    21    15    16   ar
    22    16    17   ar
    23    17    20    1
    24    20    21    2
    25    20    22   am
    26    22    23    1
    27    22    24    1
    28    17    18   ar
    29    18    19   ar
    30     7     8    2
    31     8     9    1
    32    28    29   ar
    33    29    25   ar
    34     9     1    1
    35     9     5    1
    36    19    10   ar
    37    19    14   ar
@<TRIPOS>MOLECULE
*****
 33 37 0 0 0
SMALL
GASTEIGER

@<TRIPOS>ATOM
      1 C         139.7591  139.5687  163.2650 C.2     1  UNL1        0.1253
      2 C         139.6066  138.7119  164.4866 C.2     1  UNL1        0.0701
      3 C         140.2670  137.3664  164.5462 C.2     1  UNL1        0.2372
      4 N         141.0799  136.8779  163.3841 N.2     1  UNL1       -0.0302
      5 C         141.2324  137.7347  162.1624 C.2     1  UNL1        0.4107
      6 N         141.9666  137.5213  160.8719 N.2     1  UNL1        0.0121
      7 C         141.7599  138.7348  160.0148 C.2     1  UNL1        0.3766
      8 N         140.8980  139.6983  160.7755 N.2     1  UNL1       -0.0447
      9 C         140.5720  139.0802  162.1029 C.3     1  UNL1        0.3643
     10 C         142.3173  138.9474  158.6385 C.ar    1  UNL1        0.1067
     11 C         142.4955  140.2702  157.9542 C.ar    1  UNL1        0.0837
     12 N         143.0827  140.0149  156.5976 N.ar    1  UNL1       -0.3238
     13 C         143.4251  141.0572  155.5748 C.3     1  UNL1        0.1305
     14 C         143.2673  138.5343  156.4436 C.ar    1  UNL1        0.0602
     15 C         143.8051  137.7016  155.3179 C.ar    1  UNL1        0.0173
     16 C         143.8698  136.2092  155.4534 C.ar    1  UNL1        0.0060
     17 C         143.3968  135.5494  156.7147 C.ar    1  UNL1        0.0537
     18 C         142.8590  136.3821  157.8405 C.ar    1  UNL1        0.0062
     19 C         142.7943  137.8745  157.7050 C.ar    1  UNL1        0.0248
     20 C         143.4615  134.0569  156.8502 C.2     1  UNL1        0.2491
     21 O         144.5327  133.4258  157.6895 O.2     1  UNL1       -0.2699
     22 N         142.4550  133.1956  156.1466 N.am    1  UNL1       -0.2726
     23 C         142.5198  131.7031  156.2822 C.3     1  UNL1        0.1152
     24 C         141.3839  133.8267  155.3074 C.3     1  UNL1        0.1152
     25 C         138.7510  143.3084  163.0109 C.ar    1  UNL1        0.0339
     26 C         137.4136  142.6610  163.2165 C.ar    1  UNL1        0.1191
     27 N         137.6284  141.1814  163.3367 N.ar    1  UNL1       -0.1639
     28 N         139.0986  140.9143  163.2054 N.ar    1  UNL1       -0.2276
     29 C         139.7924  142.2288  163.0040 C.ar    1  UNL1        0.0988
     30 C         139.0028  144.7774  162.8418 C.3     1  UNL1        0.1024
     31 C         140.4948  145.5348  160.8542 C.3     1  UNL1        0.0899
     32 N         140.3243  145.2565  162.3183 N.3     1  UNL1       -0.2664
     33 C         141.4754  145.4572  163.2589 C.3     1  UNL1        0.0899
@<TRIPOS>BOND
     1    31    32    1
     2    32    33    1
     3    32    30    1
     4    30    25    1
     5    25    26   ar
     6    26    27   ar
     7    27    28   ar
     8    28     1    1
     9     1     2    2
    10     2     3    1
    11     3     4    2
    12     4     5    1
    13     5     6    2
    14     6     7    1
    15     7    10    1
    16    10    11   ar
    17    11    12   ar
    18    12    13    1
    19    12    14   ar
    20    14    15   ar
    21    15    16   ar
    22    16    17   ar
    23    17    20    1
    24    20    21    2
    25    20    22   am
    26    22    23    1
    27    22    24    1
    28    17    18   ar
    29    18    19   ar
    30     7     8    2
    31     8     9    1
    32    28    29   ar
    33    29    25   ar
    34     9     1    1
    35     9     5    1
    36    19    10   ar
    37    19    14   ar
@<TRIPOS>MOLECULE
*****
 33 37 0 0 0
SMALL
GASTEIGER

@<TRIPOS>ATOM
      1 C         139.8961  144.3380  156.9831 C.2     1  UNL1        0.1253
      2 C         140.8746  144.8257  155.9562 C.2     1  UNL1        0.0701
      3 C         142.1501  145.4856  156.3894 C.2     1  UNL1        0.2372
      4 N         142.4470  145.6578  157.8496 N.2     1  UNL1       -0.0302
      5 C         141.4685  145.1701  158.8766 C.2     1  UNL1        0.4107
      6 N         141.4883  145.2008  160.3761 N.2     1  UNL1        0.0121
      7 C         140.2251  144.5598  160.8696 C.2     1  UNL1        0.3766
      8 N         139.4246  144.1330  159.6751 N.2     1  UNL1       -0.0447
      9 C         140.1930  144.5102  158.4433 C.3     1  UNL1        0.3643
     10 C         139.8316  144.3777  162.3056 C.ar    1  UNL1        0.1067
     11 C         138.5683  144.8749  162.9434 C.ar    1  UNL1        0.0837
     12 N         138.5882  144.4709  164.3879 N.ar    1  UNL1       -0.3238
     13 C         137.5201  144.7625  165.3998 C.3     1  UNL1        0.1305
     14 C         139.8638  143.7240  164.6428 C.ar    1  UNL1        0.0602
     15 C         140.4250  143.0889  165.8804 C.ar    1  UNL1        0.0173
     16 C         141.7545  142.3962  165.8311 C.ar    1  UNL1        0.0060
     17 C         142.5230  142.3386  164.5442 C.ar    1  UNL1        0.0537
     18 C         141.9618  142.9737  163.3065 C.ar    1  UNL1        0.0062
     19 C         140.6324  143.6664  163.3558 C.ar    1  UNL1        0.0248
     20 C         143.8525  141.6459  164.4949 C.2     1  UNL1        0.2491
     21 O         145.1188  142.4472  164.5639 O.2     1  UNL1       -0.2699
     22 N         143.9159  140.1519  164.3766 N.am    1  UNL1       -0.2726
     23 C         145.2456  139.4593  164.3274 C.3     1  UNL1        0.1152
     24 C         142.6498  139.3506  164.3077 C.3     1  UNL1        0.1152
     25 C         136.8079  142.0793  156.3300 C.ar    1  UNL1        0.0339
     26 C         136.5078  143.2461  155.4363 C.ar    1  UNL1        0.1191
     27 N         137.6281  144.2342  155.5722 N.ar    1  UNL1       -0.1639
     28 N         138.6206  143.6781  156.5498 N.ar    1  UNL1       -0.2276
     29 C         138.1137  142.3463  157.0182 C.ar    1  UNL1        0.0988
     30 C         135.9524  140.8596  156.5048 C.3     1  UNL1        0.1024
     31 C         135.3212  139.7177  154.2580 C.3     1  UNL1        0.0899
     32 N         134.9254  140.5092  155.4692 N.3     1  UNL1       -0.2664
     33 C         133.5025  140.9503  155.6448 C.3     1  UNL1        0.0899
@<TRIPOS>BOND
     1    31    32    1
     2    32    33    1
     3    32    30    1
     4    30    25    1
     5    25    26   ar
     6    26    27   ar
     7    27    28   ar
     8    28     1    1
     9     1     2    2
    10     2     3    1
    11     3     4    2
    12     4     5    1
    13     5     6    2
    14     6     7    1
    15     7    10    1
    16    10    11   ar
    17    11    12   ar
    18    12    13    1
    19    12    14   ar
    20    14    15   ar
    21    15    16   ar
    22    16    17   ar
    23    17    20    1
    24    20    21    2
    25    20    22   am
    26    22    23    1
    27    22    24    1
    28    17    18   ar
    29    18    19   ar
    30     7     8    2
    31     8     9    1
    32    28    29   ar
    33    29    25   ar
    34     9     1    1
    35     9     5    1
    36    19    10   ar
    37    19    14   ar
@<TRIPOS>MOLECULE
*****
 33 37 0 0 0
SMALL
GASTEIGER

@<TRIPOS>ATOM
      1 C         140.9682  143.6198  160.9290 C.2     1  UNL1        0.1253
      2 C         140.8592  145.0239  160.4126 C.2     1  UNL1        0.0701
      3 C         140.1182  146.0592  161.2058 C.2     1  UNL1        0.2372
      4 N         139.4864  145.6904  162.5153 N.2     1  UNL1       -0.0302
      5 C         139.5954  144.2864  163.0316 C.2     1  UNL1        0.4107
      6 N         139.0794  143.6328  164.2793 N.2     1  UNL1        0.0121
      7 C         139.5015  142.1936  164.2572 C.2     1  UNL1        0.3766
      8 N         140.2783  141.9576  162.9960 N.2     1  UNL1       -0.0447
      9 C         140.3364  143.2511  162.2385 C.3     1  UNL1        0.3643
     10 C         139.1996  141.1700  165.3114 C.ar    1  UNL1        0.1067
     11 C         138.4374  139.8942  165.1088 C.ar    1  UNL1        0.0837
     12 N         138.3737  139.1783  166.4255 N.ar    1  UNL1       -0.3238
     13 C         137.7046  137.8603  166.6809 C.3     1  UNL1        0.1305
     14 C         139.0966  140.0117  167.4417 C.ar    1  UNL1        0.0602
     15 C         139.3560  139.8087  168.9051 C.ar    1  UNL1        0.0173
     16 C         140.1259  140.8368  169.6799 C.ar    1  UNL1        0.0060
     17 C         140.6363  142.0678  168.9914 C.ar    1  UNL1        0.0537
     18 C         140.3769  142.2707  167.5280 C.ar    1  UNL1        0.0062
     19 C         139.6071  141.2427  166.7532 C.ar    1  UNL1        0.0248
     20 C         141.4062  143.0958  169.7663 C.2     1  UNL1        0.2491
     21 O         140.7558  144.3944  170.1415 O.2     1  UNL1       -0.2699
     22 N         142.8265  142.8253  170.1659 N.am    1  UNL1       -0.2726
     23 C         143.5963  143.8535  170.9408 C.3     1  UNL1        0.1152
     24 C         143.4768  141.5268  169.7907 C.3     1  UNL1        0.1152
     25 C         143.4232  141.4666  158.8308 C.ar    1  UNL1        0.0339
     26 C         142.2754  140.5157  159.0000 C.ar    1  UNL1        0.1191
     27 N         141.2162  141.2066  159.8065 N.ar    1  UNL1       -0.1639
     28 N         141.7092  142.5844  160.1359 N.ar    1  UNL1       -0.2276
     29 C         143.0732  142.7451  159.5328 C.ar    1  UNL1        0.0988
     30 C         144.6972  141.1879  158.0897 C.3     1  UNL1        0.1024
     31 C         143.8702  142.4092  155.9509 C.3     1  UNL1        0.0899
     32 N         144.9947  141.9125  156.8105 N.3     1  UNL1       -0.2664
     33 C         146.4166  142.1403  156.3908 C.3     1  UNL1        0.0899
@<TRIPOS>BOND
     1    31    32    1
     2    32    33    1
     3    32    30    1
     4    30    25    1
     5    25    26   ar
     6    26    27   ar
     7    27    28   ar
     8    28     1    1
     9     1     2    2
    10     2     3    1
    11     3     4    2
    12     4     5    1
    13     5     6    2
    14     6     7    1
    15     7    10    1
    16    10    11   ar
    17    11    12   ar
    18    12    13    1
    19    12    14   ar
    20    14    15   ar
    21    15    16   ar
    22    16    17   ar
    23    17    20    1
    24    20    21    2
    25    20    22   am
    26    22    23    1
    27    22    24    1
    28    17    18   ar
    29    18    19   ar
    30     7     8    2
    31     8     9    1
    32    28    29   ar
    33    29    25   ar
    34     9     1    1
    35     9     5    1
    36    19    10   ar
    37    19    14   ar
@<TRIPOS>MOLECULE
*****
 33 37 0 0 0
SMALL
GASTEIGER

@<TRIPOS>ATOM
      1 C         141.2237  142.1786  160.7265 C.2     1  UNL1        0.1253
      2 C         142.4429  142.8783  160.2033 C.2     1  UNL1        0.0701
      3 C         143.5807  143.1950  161.1280 C.2     1  UNL1        0.2372
      4 N         143.4991  142.8120  162.5760 N.2     1  UNL1       -0.0302
      5 C         142.2799  142.1123  163.0993 C.2     1  UNL1        0.4107
      6 N         141.9172  141.6157  164.4674 N.2     1  UNL1        0.0121
      7 C         140.5553  140.9920  164.3882 C.2     1  UNL1        0.3766
      8 N         140.0762  141.1032  162.9711 N.2     1  UNL1       -0.0447
      9 C         141.1422  141.7956  162.1745 C.3     1  UNL1        0.3643
     10 C         139.8042  140.3669  165.5263 C.ar    1  UNL1        0.1067
     11 C         138.8283  139.2328  165.4213 C.ar    1  UNL1        0.0837
     12 N         138.3182  138.9311  166.7993 N.ar    1  UNL1       -0.3238
     13 C         137.3223  137.8683  167.1577 C.3     1  UNL1        0.1305
     14 C         138.9789  139.8789  167.7559 C.ar    1  UNL1        0.0602
     15 C         138.8629  140.0485  169.2418 C.ar    1  UNL1        0.0173
     16 C         139.6654  141.1056  169.9408 C.ar    1  UNL1        0.0060
     17 C         140.5838  141.9930  169.1541 C.ar    1  UNL1        0.0537
     18 C         140.6998  141.8233  167.6682 C.ar    1  UNL1        0.0062
     19 C         139.8974  140.7663  166.9692 C.ar    1  UNL1        0.0248
     20 C         141.3863  143.0501  169.8531 C.2     1  UNL1        0.2491
     21 O         140.7777  144.3928  170.1308 O.2     1  UNL1       -0.2699
     22 N         142.7972  142.7646  170.2745 N.am    1  UNL1       -0.2726
     23 C         143.5996  143.8217  170.9736 C.3     1  UNL1        0.1152
     24 C         143.4058  141.4220  169.9969 C.3     1  UNL1        0.1152
     25 C         138.3503  142.0780  158.1190 C.ar    1  UNL1        0.0339
     26 C         138.3197  140.6711  158.6385 C.ar    1  UNL1        0.1191
     27 N         139.3923  140.5376  159.6784 N.ar    1  UNL1       -0.1639
     28 N         140.0858  141.8619  159.8017 N.ar    1  UNL1       -0.2276
     29 C         139.4418  142.8139  158.8379 C.ar    1  UNL1        0.0988
     30 C         137.4477  142.6487  157.0655 C.3     1  UNL1        0.1024
     31 C         138.3095  141.4331  154.9372 C.3     1  UNL1        0.0899
     32 N         137.1729  141.8717  155.8122 N.3     1  UNL1       -0.2664
     33 C         135.7613  141.5334  155.4340 C.3     1  UNL1        0.0899
@<TRIPOS>BOND
     1    31    32    1
     2    32    33    1
     3    32    30    1
     4    30    25    1
     5    25    26   ar
     6    26    27   ar
     7    27    28   ar
     8    28     1    1
     9     1     2    2
    10     2     3    1
    11     3     4    2
    12     4     5    1
    13     5     6    2
    14     6     7    1
    15     7    10    1
    16    10    11   ar
    17    11    12   ar
    18    12    13    1
    19    12    14   ar
    20    14    15   ar
    21    15    16   ar
    22    16    17   ar
    23    17    20    1
    24    20    21    2
    25    20    22   am
    26    22    23    1
    27    22    24    1
    28    17    18   ar
    29    18    19   ar
    30     7     8    2
    31     8     9    1
    32    28    29   ar
    33    29    25   ar
    34     9     1    1
    35     9     5    1
    36    19    10   ar
    37    19    14   ar
@<TRIPOS>MOLECULE
*****
 33 37 0 0 0
SMALL
GASTEIGER

@<TRIPOS>ATOM
      1 C         143.2048  137.5836  156.2133 C.2     1  UNL1        0.1253
      2 C         143.7851  138.3403  155.0555 C.2     1  UNL1        0.0701
      3 C         144.1416  139.7891  155.2095 C.2     1  UNL1        0.2372
      4 N         143.9177  140.4813  156.5213 N.2     1  UNL1       -0.0302
      5 C         143.3373  139.7246  157.6791 C.2     1  UNL1        0.4107
      6 N         143.0059  140.1369  159.0827 N.2     1  UNL1        0.0121
      7 C         142.4446  138.9428  159.7963 C.2     1  UNL1        0.3766
      8 N         142.4291  137.7925  158.8336 N.2     1  UNL1       -0.0447
      9 C         142.9809  138.2758  157.5251 C.3     1  UNL1        0.3643
     10 C         141.9802  138.9055  161.2221 C.ar    1  UNL1        0.1067
     11 C         142.1974  137.7812  162.1909 C.ar    1  UNL1        0.0837
     12 N         141.5686  138.1669  163.4971 N.ar    1  UNL1       -0.3238
     13 C         141.5490  137.3357  164.7456 C.3     1  UNL1        0.1305
     14 C         140.9629  139.5296  163.3355 C.ar    1  UNL1        0.0602
     15 C         140.2126  140.4137  164.2869 C.ar    1  UNL1        0.0173
     16 C         139.7167  141.7544  163.8323 C.ar    1  UNL1        0.0060
     17 C         139.9711  142.2110  162.4263 C.ar    1  UNL1        0.0537
     18 C         140.7214  141.3268  161.4749 C.ar    1  UNL1        0.0062
     19 C         141.2173  139.9862  161.9294 C.ar    1  UNL1        0.0248
     20 C         139.4752  143.5517  161.9718 C.2     1  UNL1        0.2491
     21 O         138.1208  143.6753  161.3390 O.2     1  UNL1       -0.2699
     22 N         140.3337  144.7687  162.1500 N.am    1  UNL1       -0.2726
     23 C         139.8377  146.1094  161.6954 C.3     1  UNL1        0.1152
     24 C         141.6880  144.6451  162.7827 C.3     1  UNL1        0.1152
     25 C         142.7654  133.7309  156.3840 C.ar    1  UNL1        0.0339
     26 C         141.8339  134.0794  155.2610 C.ar    1  UNL1        0.1191
     27 N         141.8852  135.5650  155.0604 N.ar    1  UNL1       -0.1639
     28 N         142.8483  136.1347  156.0594 N.ar    1  UNL1       -0.2276
     29 C         143.3922  135.0011  156.8774 C.ar    1  UNL1        0.0988
     30 C         143.0244  132.3539  156.9195 C.3     1  UNL1        0.1024
     31 C         145.3910  132.0822  157.9564 C.3     1  UNL1        0.0899
     32 N         144.4076  131.7762  156.8659 N.3     1  UNL1       -0.2664
     33 C         144.8075  130.8926  155.7216 C.3     1  UNL1        0.0899
@<TRIPOS>BOND
     1    31    32    1
     2    32    33    1
     3    32    30    1
     4    30    25    1
     5    25    26   ar
     6    26    27   ar
     7    27    28   ar
     8    28     1    1
     9     1     2    2
    10     2     3    1
    11     3     4    2
    12     4     5    1
    13     5     6    2
    14     6     7    1
    15     7    10    1
    16    10    11   ar
    17    11    12   ar
    18    12    13    1
    19    12    14   ar
    20    14    15   ar
    21    15    16   ar
    22    16    17   ar
    23    17    20    1
    24    20    21    2
    25    20    22   am
    26    22    23    1
    27    22    24    1
    28    17    18   ar
    29    18    19   ar
    30     7     8    2
    31     8     9    1
    32    28    29   ar
    33    29    25   ar
    34     9     1    1
    35     9     5    1
    36    19    10   ar
    37    19    14   ar
@<TRIPOS>MOLECULE
*****
 33 37 0 0 0
SMALL
GASTEIGER

@<TRIPOS>ATOM
      1 C         140.4607  138.7461  156.7744 C.2     1  UNL1        0.1253
      2 C         141.6262  138.4535  155.8767 C.2     1  UNL1        0.0701
      3 C         142.9458  138.0538  156.4671 C.2     1  UNL1        0.2372
      4 N         143.1000  137.9466  157.9553 N.2     1  UNL1       -0.0302
      5 C         141.9346  138.2392  158.8531 C.2     1  UNL1        0.4107
      6 N         141.7870  138.2176  160.3456 N.2     1  UNL1        0.0121
      7 C         140.3762  138.6039  160.6777 C.2     1  UNL1        0.3766
      8 N         139.6517  138.8644  159.3903 N.2     1  UNL1       -0.0447
      9 C         140.6149  138.6390  158.2627 C.3     1  UNL1        0.3643
     10 C         139.7923  138.7110  162.0553 C.ar    1  UNL1        0.1067
     11 C         139.5538  137.5728  163.0026 C.ar    1  UNL1        0.0837
     12 N         138.9585  138.1335  164.2602 N.ar    1  UNL1       -0.3238
     13 C         138.5622  137.3474  165.4747 C.3     1  UNL1        0.1305
     14 C         138.8292  139.6181  164.0900 C.ar    1  UNL1        0.0602
     15 C         138.3088  140.6911  164.9998 C.ar    1  UNL1        0.0173
     16 C         138.3038  142.1211  164.5469 C.ar    1  UNL1        0.0060
     17 C         138.8191  142.4781  163.1842 C.ar    1  UNL1        0.0537
     18 C         139.3395  141.4051  162.2744 C.ar    1  UNL1        0.0062
     19 C         139.3446  139.9752  162.7272 C.ar    1  UNL1        0.0248
     20 C         138.8140  143.9081  162.7313 C.2     1  UNL1        0.2491
     21 O         137.5128  144.6083  162.4726 O.2     1  UNL1       -0.2699
     22 N         140.1100  144.6379  162.5371 N.am    1  UNL1       -0.2726
     23 C         140.1048  146.0679  162.0842 C.3     1  UNL1        0.1152
     24 C         141.4111  143.9378  162.7959 C.3     1  UNL1        0.1152
     25 C         137.1419  140.4125  155.6456 C.ar    1  UNL1        0.0339
     26 C         137.0784  139.1094  154.9053 C.ar    1  UNL1        0.1191
     27 N         138.3139  138.3266  155.2380 N.ar    1  UNL1       -0.1639
     28 N         139.1409  139.1459  156.1840 N.ar    1  UNL1       -0.2276
     29 C         138.4166  140.4350  156.4359 C.ar    1  UNL1        0.0988
     30 C         136.1115  141.5018  155.6031 C.3     1  UNL1        0.1024
     31 C         134.5324  141.4816  153.5401 C.3     1  UNL1        0.0899
     32 N         134.7633  141.2358  155.0017 N.3     1  UNL1       -0.2664
     33 C         133.6461  140.7242  155.8619 C.3     1  UNL1        0.0899
@<TRIPOS>BOND
     1    31    32    1
     2    32    33    1
     3    32    30    1
     4    30    25    1
     5    25    26   ar
     6    26    27   ar
     7    27    28   ar
     8    28     1    1
     9     1     2    2
    10     2     3    1
    11     3     4    2
    12     4     5    1
    13     5     6    2
    14     6     7    1
    15     7    10    1
    16    10    11   ar
    17    11    12   ar
    18    12    13    1
    19    12    14   ar
    20    14    15   ar
    21    15    16   ar
    22    16    17   ar
    23    17    20    1
    24    20    21    2
    25    20    22   am
    26    22    23    1
    27    22    24    1
    28    17    18   ar
    29    18    19   ar
    30     7     8    2
    31     8     9    1
    32    28    29   ar
    33    29    25   ar
    34     9     1    1
    35     9     5    1
    36    19    10   ar
    37    19    14   ar
@<TRIPOS>MOLECULE
*****
 33 37 0 0 0
SMALL
GASTEIGER

@<TRIPOS>ATOM
      1 C         139.7016  138.7907  157.1773 C.2     1  UNL1        0.1253
      2 C         139.0558  139.4450  155.9920 C.2     1  UNL1        0.0701
      3 C         137.9601  140.4492  156.1943 C.2     1  UNL1        0.2372
      4 N         137.5101  140.7991  157.5817 N.2     1  UNL1       -0.0302
      5 C         138.1559  140.1448  158.7670 C.2     1  UNL1        0.4107
      6 N         137.9248  140.2880  160.2422 N.2     1  UNL1        0.0121
      7 C         138.8778  139.3723  160.9517 C.2     1  UNL1        0.3766
      8 N         139.6978  138.6631  159.9150 N.2     1  UNL1       -0.0447
      9 C         139.2516  139.1406  158.5648 C.3     1  UNL1        0.3643
     10 C         138.9908  139.1965  162.4371 C.ar    1  UNL1        0.1067
     11 C         138.5249  138.0063  163.2219 C.ar    1  UNL1        0.0837
     12 N         138.8357  138.2544  164.6684 N.ar    1  UNL1       -0.3238
     13 C         138.5404  137.3225  165.8060 C.3     1  UNL1        0.1305
     14 C         139.4937  139.5979  164.7773 C.ar    1  UNL1        0.0602
     15 C         140.0180  140.3663  165.9539 C.ar    1  UNL1        0.0173
     16 C         140.6382  141.7171  165.7516 C.ar    1  UNL1        0.0060
     17 C         140.7340  142.2994  164.3726 C.ar    1  UNL1        0.0537
     18 C         140.2097  141.5309  163.1959 C.ar    1  UNL1        0.0062
     19 C         139.5896  140.1803  163.3982 C.ar    1  UNL1        0.0248
     20 C         141.3541  143.6501  164.1702 C.2     1  UNL1        0.2491
     21 O         140.4975  144.8811  164.2025 O.2     1  UNL1       -0.2699
     22 N         142.8308  143.7699  163.9357 N.am    1  UNL1       -0.2726
     23 C         143.4509  145.1207  163.7333 C.3     1  UNL1        0.1152
     24 C         143.6874  142.5390  163.9034 C.3     1  UNL1        0.1152
     25 C         142.0835  135.9140  156.1206 C.ar    1  UNL1        0.0339
     26 C         142.8838  136.5684  157.2075 C.ar    1  UNL1        0.1191
     27 N         142.0889  137.7257  157.7356 N.ar    1  UNL1       -0.1639
     28 N         140.7974  137.7865  156.9751 N.ar    1  UNL1       -0.2276
     29 C         140.7940  136.6668  155.9770 C.ar    1  UNL1        0.0988
     30 C         142.4996  134.7169  155.3182 C.3     1  UNL1        0.1024
     31 C         141.3280  132.3992  155.2443 C.3     1  UNL1        0.0899
     32 N         142.3125  133.3375  155.8769 N.3     1  UNL1       -0.2664
     33 C         143.1100  132.8965  157.0684 C.3     1  UNL1        0.0899
@<TRIPOS>BOND
     1    31    32    1
     2    32    33    1
     3    32    30    1
     4    30    25    1
     5    25    26   ar
     6    26    27   ar
     7    27    28   ar
     8    28     1    1
     9     1     2    2
    10     2     3    1
    11     3     4    2
    12     4     5    1
    13     5     6    2
    14     6     7    1
    15     7    10    1
    16    10    11   ar
    17    11    12   ar
    18    12    13    1
    19    12    14   ar
    20    14    15   ar
    21    15    16   ar
    22    16    17   ar
    23    17    20    1
    24    20    21    2
    25    20    22   am
    26    22    23    1
    27    22    24    1
    28    17    18   ar
    29    18    19   ar
    30     7     8    2
    31     8     9    1
    32    28    29   ar
    33    29    25   ar
    34     9     1    1
    35     9     5    1
    36    19    10   ar
    37    19    14   ar
@<TRIPOS>MOLECULE
*****
 33 37 0 0 0
SMALL
GASTEIGER

@<TRIPOS>ATOM
      1 C         140.3043  137.6922  156.2611 C.2     1  UNL1        0.1253
      2 C         139.7405  138.1876  154.9624 C.2     1  UNL1        0.0701
      3 C         138.7055  139.2733  154.9597 C.2     1  UNL1        0.2372
      4 N         138.2344  139.8636  156.2557 N.2     1  UNL1       -0.0302
      5 C         138.7982  139.3682  157.5544 C.2     1  UNL1        0.4107
      6 N         138.5293  139.7558  158.9783 N.2     1  UNL1        0.0121
      7 C         139.3981  138.9096  159.8610 C.2     1  UNL1        0.3766
      8 N         140.2039  137.9990  158.9827 N.2     1  UNL1       -0.0447
      9 C         139.8331  138.2825  157.5571 C.3     1  UNL1        0.3643
     10 C         139.4516  138.9643  161.3591 C.ar    1  UNL1        0.1067
     11 C         139.6395  137.7938  162.2779 C.ar    1  UNL1        0.0837
     12 N         139.6306  138.3053  163.6881 N.ar    1  UNL1       -0.3238
     13 C         139.7875  137.4757  164.9279 C.3     1  UNL1        0.1305
     14 C         139.4372  139.7920  163.6406 C.ar    1  UNL1        0.0602
     15 C         139.3475  140.8275  164.7221 C.ar    1  UNL1        0.0173
     16 C         139.1472  142.2703  164.3642 C.ar    1  UNL1        0.0060
     17 C         139.0366  142.6777  162.9249 C.ar    1  UNL1        0.0537
     18 C         139.1263  141.6421  161.8434 C.ar    1  UNL1        0.0062
     19 C         139.3265  140.1994  162.2012 C.ar    1  UNL1        0.0248
     20 C         138.8363  144.1205  162.5670 C.2     1  UNL1        0.2491
     21 O         137.4675  144.7293  162.6440 O.2     1  UNL1       -0.2699
     22 N         140.0047  144.9546  162.1321 N.am    1  UNL1       -0.2726
     23 C         139.8043  146.3974  161.7742 C.3     1  UNL1        0.1152
     24 C         141.3734  144.3458  162.0551 C.3     1  UNL1        0.1152
     25 C         142.5459  134.5663  155.7417 C.ar    1  UNL1        0.0339
     26 C         143.3180  135.3049  156.7946 C.ar    1  UNL1        0.1191
     27 N         142.5722  136.5657  157.1173 N.ar    1  UNL1       -0.1639
     28 N         141.3393  136.6064  156.2639 N.ar    1  UNL1       -0.2276
     29 C         141.3230  135.3707  155.4137 C.ar    1  UNL1        0.0988
     30 C         142.9295  133.2538  155.1251 C.3     1  UNL1        0.1024
     31 C         142.9921  131.3634  156.9063 C.3     1  UNL1        0.0899
     32 N         142.3785  131.9743  155.6814 N.3     1  UNL1       -0.2664
     33 C         141.2141  131.3058  155.0128 C.3     1  UNL1        0.0899
@<TRIPOS>BOND
     1    31    32    1
     2    32    33    1
     3    32    30    1
     4    30    25    1
     5    25    26   ar
     6    26    27   ar
     7    27    28   ar
     8    28     1    1
     9     1     2    2
    10     2     3    1
    11     3     4    2
    12     4     5    1
    13     5     6    2
    14     6     7    1
    15     7    10    1
    16    10    11   ar
    17    11    12   ar
    18    12    13    1
    19    12    14   ar
    20    14    15   ar
    21    15    16   ar
    22    16    17   ar
    23    17    20    1
    24    20    21    2
    25    20    22   am
    26    22    23    1
    27    22    24    1
    28    17    18   ar
    29    18    19   ar
    30     7     8    2
    31     8     9    1
    32    28    29   ar
    33    29    25   ar
    34     9     1    1
    35     9     5    1
    36    19    10   ar
    37    19    14   ar
