@<TRIPOS>MOLECULE
*****
 36 40 0 0 0
SMALL
GASTEIGER

@<TRIPOS>ATOM
      1 C         138.1934  141.1680  162.6691 C.2     1  UNL1        0.2320
      2 O         136.9682  141.5834  163.4283 O.2     1  UNL1       -0.2744
      3 N         139.2939  140.4268  163.3688 N.am    1  UNL1       -0.2639
      4 H         140.0980  140.1541  162.8705 H       1  UNL1        0.1567
      5 C         139.1692  140.1009  164.8276 C.ar    1  UNL1        0.1655
      6 N         139.7795  140.8739  165.9590 N.ar    1  UNL1       -0.2239
      7 C         139.3999  140.1957  167.2418 C.ar    1  UNL1        0.0913
      8 C         138.5549  139.0034  166.9034 C.ar    1  UNL1        0.0573
      9 S         138.4124  138.9449  165.4113 S.2     1  UNL1       -0.0508
     10 C         139.7957  140.6328  168.6210 C.ar    1  UNL1        0.0403
     11 C         138.9844  140.4528  169.8698 C.ar    1  UNL1        0.1021
     12 N         139.7596  141.0355  171.0141 N.ar    1  UNL1       -0.2269
     13 C         141.0500  141.5757  170.4726 C.ar    1  UNL1        0.1406
     14 N         142.2075  142.2620  171.1352 N.ar    1  UNL1       -0.3374
     15 C         143.3872  142.6995  170.3187 C.ar    1  UNL1        0.0735
     16 C         143.4095  142.4507  168.8397 C.ar    1  UNL1        0.0186
     17 C         142.2520  141.7644  168.1771 C.ar    1  UNL1        0.0046
     18 C         141.0722  141.3269  168.9936 C.ar    1  UNL1        0.0370
     19 H         142.1928  142.4254  172.1060 H       1  UNL1        0.1674
     20 C         138.3181  141.4938  161.2103 C.3     1  UNL1        0.1118
     21 C         140.2706  144.9451  161.3730 C.ar    1  UNL1        0.1383
     22 C         140.4865  145.2177  159.9139 C.ar    1  UNL1        0.0369
     23 C         139.9797  144.2490  158.8869 C.ar    1  UNL1        0.0028
     24 C         139.2569  143.0077  159.3190 C.ar    1  UNL1       -0.0036
     25 C         139.0409  142.7351  160.7781 C.ar    1  UNL1       -0.0101
     26 C         139.5477  143.7038  161.8052 C.ar    1  UNL1        0.0331
     27 O         140.7774  145.9138  162.4000 O.3     1  UNL1       -0.4740
     28 C         141.5420  145.4137  163.5898 C.3     1  UNL1        0.2226
     29 C         143.0021  145.0946  163.4628 C.3     1  UNL1        0.1201
     30 C         144.8962  139.4304  164.0366 C.3     1  UNL1        0.0897
     31 N         144.4226  140.8464  163.8932 N.3     1  UNL1       -0.2691
     32 C         145.1144  141.7758  162.9403 C.3     1  UNL1        0.0897
     33 C         144.6409  143.1917  162.7969 C.3     1  UNL1        0.0898
     34 N         143.4756  143.6786  163.6063 N.3     1  UNL1       -0.2672
     35 C         142.7838  142.7493  164.5592 C.3     1  UNL1        0.0898
     36 C         143.2573  141.3332  164.7026 C.3     1  UNL1        0.0897
@<TRIPOS>BOND
     1    30    31    1
     2    31    32    1
     3    32    33    1
     4    33    34    1
     5    34    29    1
     6    29    28    1
     7    28    27    1
     8    27    21    1
     9    21    22   ar
    10    22    23   ar
    11    23    24   ar
    12    24    25   ar
    13    25    20    1
    14    20     1    1
    15     1     2    2
    16     1     3   am
    17     3     5    1
    18     5     6   ar
    19     6     7   ar
    20     7    10    1
    21    10    11   ar
    22    11    12   ar
    23    12    13   ar
    24    13    14   ar
    25    14    15   ar
    26    15    16   ar
    27    16    17   ar
    28    17    18   ar
    29     7     8   ar
    30     8     9   ar
    31    25    26   ar
    32    34    35    1
    33    35    36    1
    34    36    31    1
    35    26    21   ar
    36     9     5   ar
    37    18    10   ar
    38    18    13    1
    39     3     4    1
    40    14    19    1
@<TRIPOS>MOLECULE
*****
 36 40 0 0 0
SMALL
GASTEIGER

@<TRIPOS>ATOM
      1 C         142.3136  138.3955  163.5859 C.2     1  UNL1        0.2320
      2 O         143.0422  138.1236  164.8686 O.2     1  UNL1       -0.2744
      3 N         140.9023  138.9025  163.6181 N.am    1  UNL1       -0.2639
      4 H         140.4240  139.0810  162.7763 H       1  UNL1        0.1567
      5 C         140.2196  139.1376  164.9328 C.ar    1  UNL1        0.1655
      6 N         140.7992  139.8648  166.1098 N.ar    1  UNL1       -0.2239
      7 C         139.7752  139.8634  167.2058 C.ar    1  UNL1        0.0913
      8 C         138.5627  139.1352  166.7064 C.ar    1  UNL1        0.0573
      9 S         138.8373  138.6867  165.3016 S.2     1  UNL1       -0.0508
     10 C         139.9356  140.4815  168.5631 C.ar    1  UNL1        0.0403
     11 C         138.9509  140.3986  169.6916 C.ar    1  UNL1        0.1021
     12 N         139.5156  141.1569  170.8561 N.ar    1  UNL1       -0.2269
     13 C         140.8493  141.7086  170.4473 C.ar    1  UNL1        0.1406
     14 N         141.8608  142.5370  171.1824 N.ar    1  UNL1       -0.3374
     15 C         143.1319  142.9480  170.5003 C.ar    1  UNL1        0.0735
     16 C         143.3915  142.5306  169.0831 C.ar    1  UNL1        0.0186
     17 C         142.3800  141.7021  168.3480 C.ar    1  UNL1        0.0046
     18 C         141.1088  141.2911  169.0301 C.ar    1  UNL1        0.0370
     19 H         141.6904  142.8110  172.1125 H       1  UNL1        0.1674
     20 C         142.9963  138.1605  162.2711 C.3     1  UNL1        0.1118
     21 C         144.3040  141.7137  161.0815 C.ar    1  UNL1        0.1383
     22 C         144.0161  141.6439  159.6110 C.ar    1  UNL1        0.0369
     23 C         143.3883  140.4130  159.0273 C.ar    1  UNL1        0.0028
     24 C         143.0483  139.2519  159.9139 C.ar    1  UNL1       -0.0036
     25 C         143.3362  139.3216  161.3844 C.ar    1  UNL1       -0.0101
     26 C         143.9641  140.5525  161.9682 C.ar    1  UNL1        0.0331
     27 O         144.9318  142.9446  161.6652 O.3     1  UNL1       -0.4740
     28 C         144.4142  143.5113  162.9540 C.3     1  UNL1        0.2226
     29 C         143.4939  144.6957  162.9364 C.3     1  UNL1        0.1201
     30 C         137.8031  144.1003  164.7417 C.3     1  UNL1        0.0897
     31 N         139.2257  144.2492  164.2903 N.3     1  UNL1       -0.2691
     32 C         140.3132  143.4698  164.9685 C.3     1  UNL1        0.0897
     33 C         141.7359  143.6186  164.5172 C.3     1  UNL1        0.0898
     34 N         142.0712  144.5469  163.3877 N.3     1  UNL1       -0.2672
     35 C         140.9838  145.3263  162.7095 C.3     1  UNL1        0.0898
     36 C         139.5610  145.1775  163.1608 C.3     1  UNL1        0.0897
@<TRIPOS>BOND
     1    30    31    1
     2    31    32    1
     3    32    33    1
     4    33    34    1
     5    34    29    1
     6    29    28    1
     7    28    27    1
     8    27    21    1
     9    21    22   ar
    10    22    23   ar
    11    23    24   ar
    12    24    25   ar
    13    25    20    1
    14    20     1    1
    15     1     2    2
    16     1     3   am
    17     3     5    1
    18     5     6   ar
    19     6     7   ar
    20     7    10    1
    21    10    11   ar
    22    11    12   ar
    23    12    13   ar
    24    13    14   ar
    25    14    15   ar
    26    15    16   ar
    27    16    17   ar
    28    17    18   ar
    29     7     8   ar
    30     8     9   ar
    31    25    26   ar
    32    34    35    1
    33    35    36    1
    34    36    31    1
    35    26    21   ar
    36     9     5   ar
    37    18    10   ar
    38    18    13    1
    39     3     4    1
    40    14    19    1
@<TRIPOS>MOLECULE
*****
 36 40 0 0 0
SMALL
GASTEIGER

@<TRIPOS>ATOM
      1 C         138.5321  139.2110  165.2031 C.2     1  UNL1        0.2320
      2 O         138.2594  140.5207  164.5248 O.2     1  UNL1       -0.2744
      3 N         139.1284  138.0743  164.4270 N.am    1  UNL1       -0.2639
      4 H         139.3074  137.2146  164.8722 H       1  UNL1        0.1567
      5 C         139.4518  138.2473  162.9726 C.ar    1  UNL1        0.1655
      6 N         140.7936  138.6027  162.4040 N.ar    1  UNL1       -0.2239
      7 C         140.6614  138.6704  160.9114 C.ar    1  UNL1        0.0913
      8 C         139.2379  138.3567  160.5574 C.ar    1  UNL1        0.0573
      9 S         138.4904  138.0953  161.8313 S.2     1  UNL1       -0.0508
     10 C         141.7599  138.9947  159.9428 C.ar    1  UNL1        0.0403
     11 C         142.3384  138.0613  158.9210 C.ar    1  UNL1        0.1021
     12 N         143.4087  138.7992  158.1726 N.ar    1  UNL1       -0.2269
     13 C         143.4916  140.1886  158.7318 C.ar    1  UNL1        0.1406
     14 N         144.3633  141.3592  158.3862 N.ar    1  UNL1       -0.3374
     15 C         144.2160  142.6508  159.1346 C.ar    1  UNL1        0.0735
     16 C         143.1970  142.7716  160.2286 C.ar    1  UNL1        0.0186
     17 C         142.3252  141.6010  160.5743 C.ar    1  UNL1        0.0046
     18 C         142.4726  140.3094  159.8259 C.ar    1  UNL1        0.0370
     19 H         145.0322  141.2799  157.6681 H       1  UNL1        0.1674
     20 C         138.2086  139.0379  166.6576 C.3     1  UNL1        0.1118
     21 C         141.4052  140.6188  168.3991 C.ar    1  UNL1        0.1383
     22 C         140.8882  140.8447  169.7889 C.ar    1  UNL1        0.0369
     23 C         139.4781  140.4684  170.1350 C.ar    1  UNL1        0.0028
     24 C         138.5848  139.8661  169.0913 C.ar    1  UNL1       -0.0036
     25 C         139.1018  139.6402  167.7014 C.ar    1  UNL1       -0.0101
     26 C         140.5120  140.0166  167.3552 C.ar    1  UNL1        0.0331
     27 O         142.8154  140.9952  168.0531 O.3     1  UNL1       -0.4740
     28 C         143.0868  142.2415  167.2636 C.3     1  UNL1        0.2226
     29 C         143.2667  142.1630  165.7765 C.3     1  UNL1        0.1201
     30 C         140.0956  145.7665  162.1767 C.3     1  UNL1        0.0897
     31 N         140.8884  144.8657  163.0766 N.3     1  UNL1       -0.2691
     32 C         140.2099  143.7368  163.7945 C.3     1  UNL1        0.0897
     33 C         141.0026  142.8360  164.6944 C.3     1  UNL1        0.0898
     34 N         142.4739  143.0639  164.8766 N.3     1  UNL1       -0.2672
     35 C         143.1525  144.1928  164.1588 C.3     1  UNL1        0.0898
     36 C         142.3597  145.0937  163.2588 C.3     1  UNL1        0.0897
@<TRIPOS>BOND
     1    30    31    1
     2    31    32    1
     3    32    33    1
     4    33    34    1
     5    34    29    1
     6    29    28    1
     7    28    27    1
     8    27    21    1
     9    21    22   ar
    10    22    23   ar
    11    23    24   ar
    12    24    25   ar
    13    25    20    1
    14    20     1    1
    15     1     2    2
    16     1     3   am
    17     3     5    1
    18     5     6   ar
    19     6     7   ar
    20     7    10    1
    21    10    11   ar
    22    11    12   ar
    23    12    13   ar
    24    13    14   ar
    25    14    15   ar
    26    15    16   ar
    27    16    17   ar
    28    17    18   ar
    29     7     8   ar
    30     8     9   ar
    31    25    26   ar
    32    34    35    1
    33    35    36    1
    34    36    31    1
    35    26    21   ar
    36     9     5   ar
    37    18    10   ar
    38    18    13    1
    39     3     4    1
    40    14    19    1
@<TRIPOS>MOLECULE
*****
 36 40 0 0 0
SMALL
GASTEIGER

@<TRIPOS>ATOM
      1 C         138.3384  141.9974  163.0194 C.2     1  UNL1        0.2320
      2 O         137.5283  142.7792  164.0106 O.2     1  UNL1       -0.2744
      3 N         139.1141  140.7943  163.4673 N.am    1  UNL1       -0.2639
      4 H         139.6459  140.2812  162.8167 H       1  UNL1        0.1567
      5 C         139.0798  140.3729  164.9064 C.ar    1  UNL1        0.1655
      6 N         139.6926  141.1146  166.0572 N.ar    1  UNL1       -0.2239
      7 C         139.4182  140.3359  167.3095 C.ar    1  UNL1        0.0913
      8 C         138.6357  139.1129  166.9327 C.ar    1  UNL1        0.0573
      9 S         138.4266  139.1358  165.4476 S.2     1  UNL1       -0.0508
     10 C         139.8503  140.7139  168.6953 C.ar    1  UNL1        0.0403
     11 C         139.0683  140.4876  169.9552 C.ar    1  UNL1        0.1021
     12 N         139.8750  141.0183  171.1030 N.ar    1  UNL1       -0.2269
     13 C         141.1556  141.5725  170.5526 C.ar    1  UNL1        0.1406
     14 N         142.3336  142.2242  171.2141 N.ar    1  UNL1       -0.3374
     15 C         143.4963  142.6878  170.3875 C.ar    1  UNL1        0.0735
     16 C         143.4810  142.4996  168.8994 C.ar    1  UNL1        0.0186
     17 C         142.3030  141.8479  168.2379 C.ar    1  UNL1        0.0046
     18 C         141.1403  141.3844  169.0645 C.ar    1  UNL1        0.0370
     19 H         142.3436  142.3477  172.1907 H       1  UNL1        0.1674
     20 C         138.3728  142.4188  161.5802 C.3     1  UNL1        0.1118
     21 C         142.1196  142.7496  160.3141 C.ar    1  UNL1        0.1383
     22 C         142.1080  141.8089  159.1457 C.ar    1  UNL1        0.0369
     23 C         140.8514  141.0716  158.7888 C.ar    1  UNL1        0.0028
     24 C         139.6064  141.2749  159.6003 C.ar    1  UNL1       -0.0036
     25 C         139.6178  142.2155  160.7687 C.ar    1  UNL1       -0.0101
     26 C         140.8744  142.9529  161.1257 C.ar    1  UNL1        0.0331
     27 O         143.3761  143.4868  160.6710 O.3     1  UNL1       -0.4740
     28 C         144.6408  142.7266  160.9408 C.3     1  UNL1        0.2226
     29 C         144.9550  142.2635  162.3325 C.3     1  UNL1        0.1201
     30 C         141.8271  137.7635  164.7749 C.3     1  UNL1        0.0897
     31 N         142.6090  138.8885  164.1643 N.3     1  UNL1       -0.2691
     32 C         142.9862  140.0781  164.9965 C.3     1  UNL1        0.0897
     33 C         143.7681  141.2031  164.3859 C.3     1  UNL1        0.0898
     34 N         144.1730  141.1385  162.9431 N.3     1  UNL1       -0.2672
     35 C         143.7959  139.9489  162.1108 C.3     1  UNL1        0.0898
     36 C         143.0139  138.8239  162.7214 C.3     1  UNL1        0.0897
@<TRIPOS>BOND
     1    30    31    1
     2    31    32    1
     3    32    33    1
     4    33    34    1
     5    34    29    1
     6    29    28    1
     7    28    27    1
     8    27    21    1
     9    21    22   ar
    10    22    23   ar
    11    23    24   ar
    12    24    25   ar
    13    25    20    1
    14    20     1    1
    15     1     2    2
    16     1     3   am
    17     3     5    1
    18     5     6   ar
    19     6     7   ar
    20     7    10    1
    21    10    11   ar
    22    11    12   ar
    23    12    13   ar
    24    13    14   ar
    25    14    15   ar
    26    15    16   ar
    27    16    17   ar
    28    17    18   ar
    29     7     8   ar
    30     8     9   ar
    31    25    26   ar
    32    34    35    1
    33    35    36    1
    34    36    31    1
    35    26    21   ar
    36     9     5   ar
    37    18    10   ar
    38    18    13    1
    39     3     4    1
    40    14    19    1
@<TRIPOS>MOLECULE
*****
 36 40 0 0 0
SMALL
GASTEIGER

@<TRIPOS>ATOM
      1 C         138.3435  142.4032  163.6126 C.2     1  UNL1        0.2320
      2 O         137.4025  142.4028  162.4445 O.2     1  UNL1       -0.2744
      3 N         139.5976  143.2247  163.5650 N.am    1  UNL1       -0.2639
      4 H         140.2152  143.2250  164.3317 H       1  UNL1        0.1567
      5 C         139.9108  144.0456  162.3494 C.ar    1  UNL1        0.1655
      6 N         140.5247  143.5394  161.0777 N.ar    1  UNL1       -0.2239
      7 C         140.6585  144.6978  160.1343 C.ar    1  UNL1        0.0913
      8 C         140.1272  145.9200  160.8228 C.ar    1  UNL1        0.0573
      9 S         139.6652  145.5169  162.1917 S.2     1  UNL1       -0.0508
     10 C         141.2241  144.6436  158.7461 C.ar    1  UNL1        0.0403
     11 C         140.7114  145.3976  157.5551 C.ar    1  UNL1        0.1021
     12 N         141.5722  145.0458  156.3781 N.ar    1  UNL1       -0.2269
     13 C         142.6170  144.0745  156.8417 C.ar    1  UNL1        0.1406
     14 N         143.7364  143.3842  156.1204 N.ar    1  UNL1       -0.3374
     15 C         144.6407  142.4454  156.8625 C.ar    1  UNL1        0.0735
     16 C         144.4256  142.1968  158.3261 C.ar    1  UNL1        0.0186
     17 C         143.3061  142.8871  159.0474 C.ar    1  UNL1        0.0046
     18 C         142.4019  143.8259  158.3053 C.ar    1  UNL1        0.0370
     19 H         143.8776  143.5474  155.1598 H       1  UNL1        0.1674
     20 C         138.0303  141.5823  164.8283 C.3     1  UNL1        0.1118
     21 C         139.2950  138.0052  163.6640 C.ar    1  UNL1        0.1383
     22 C         138.9927  137.1867  164.8841 C.ar    1  UNL1        0.0369
     23 C         138.3697  137.8334  166.0856 C.ar    1  UNL1        0.0028
     24 C         138.0489  139.2985  166.0671 C.ar    1  UNL1       -0.0036
     25 C         138.3511  140.1171  164.8469 C.ar    1  UNL1       -0.0101
     26 C         138.9741  139.4705  163.6453 C.ar    1  UNL1        0.0331
     27 O         139.9180  137.3586  162.4625 O.3     1  UNL1       -0.4740
     28 C         140.9471  138.0995  161.6611 C.3     1  UNL1        0.2226
     29 C         142.3877  138.0676  162.0778 C.3     1  UNL1        0.1201
     30 C         144.8880  142.9021  164.6027 C.3     1  UNL1        0.0897
     31 N         144.2629  141.6936  163.9715 N.3     1  UNL1       -0.2691
     32 C         144.9410  140.3594  164.0722 C.3     1  UNL1        0.0897
     33 C         144.3160  139.1508  163.4410 C.3     1  UNL1        0.0898
     34 N         143.0128  139.2763  162.7090 N.3     1  UNL1       -0.2672
     35 C         142.3346  140.6104  162.6083 C.3     1  UNL1        0.0898
     36 C         142.9596  141.8191  163.2395 C.3     1  UNL1        0.0897
@<TRIPOS>BOND
     1    30    31    1
     2    31    32    1
     3    32    33    1
     4    33    34    1
     5    34    29    1
     6    29    28    1
     7    28    27    1
     8    27    21    1
     9    21    22   ar
    10    22    23   ar
    11    23    24   ar
    12    24    25   ar
    13    25    20    1
    14    20     1    1
    15     1     2    2
    16     1     3   am
    17     3     5    1
    18     5     6   ar
    19     6     7   ar
    20     7    10    1
    21    10    11   ar
    22    11    12   ar
    23    12    13   ar
    24    13    14   ar
    25    14    15   ar
    26    15    16   ar
    27    16    17   ar
    28    17    18   ar
    29     7     8   ar
    30     8     9   ar
    31    25    26   ar
    32    34    35    1
    33    35    36    1
    34    36    31    1
    35    26    21   ar
    36     9     5   ar
    37    18    10   ar
    38    18    13    1
    39     3     4    1
    40    14    19    1
@<TRIPOS>MOLECULE
*****
 36 40 0 0 0
SMALL
GASTEIGER

@<TRIPOS>ATOM
      1 C         142.5553  140.9651  161.2386 C.2     1  UNL1        0.2320
      2 O         143.5868  141.5803  162.1373 O.2     1  UNL1       -0.2744
      3 N         141.5804  139.9669  161.7892 N.am    1  UNL1       -0.2639
      4 H         140.9034  139.5631  161.1994 H       1  UNL1        0.1567
      5 C         141.6368  139.5840  163.2383 C.ar    1  UNL1        0.1655
      6 N         140.7094  140.0657  164.3144 N.ar    1  UNL1       -0.2239
      7 C         141.1300  139.4316  165.6070 C.ar    1  UNL1        0.0913
      8 C         142.3174  138.5579  165.3299 C.ar    1  UNL1        0.0573
      9 S         142.6306  138.6521  163.8660 S.2     1  UNL1       -0.0508
     10 C         140.4778  139.6354  166.9423 C.ar    1  UNL1        0.0403
     11 C         139.0221  139.4455  167.2507 C.ar    1  UNL1        0.1021
     12 N         138.8114  139.7576  168.7027 N.ar    1  UNL1       -0.2269
     13 C         140.1368  140.1403  169.2916 C.ar    1  UNL1        0.1406
     14 N         140.5389  140.5479  170.6781 N.ar    1  UNL1       -0.3374
     15 C         141.9709  140.8799  170.9765 C.ar    1  UNL1        0.0735
     16 C         143.0008  140.8044  169.8885 C.ar    1  UNL1        0.0186
     17 C         142.5987  140.3968  168.5021 C.ar    1  UNL1        0.0046
     18 C         141.1667  140.0648  168.2037 C.ar    1  UNL1        0.0370
     19 H         139.8630  140.5974  171.3921 H       1  UNL1        0.1674
     20 C         142.4989  141.3479  159.7894 C.3     1  UNL1        0.1118
     21 C         140.5626  144.8120  159.7487 C.ar    1  UNL1        0.1383
     22 C         141.2464  145.5055  158.6078 C.ar    1  UNL1        0.0369
     23 C         142.3476  144.8132  157.8608 C.ar    1  UNL1        0.0028
     24 C         142.7651  143.4274  158.2546 C.ar    1  UNL1       -0.0036
     25 C         142.0814  142.7338  159.3955 C.ar    1  UNL1       -0.0101
     26 C         140.9801  143.4261  160.1426 C.ar    1  UNL1        0.0331
     27 O         139.4614  145.5043  160.4957 O.3     1  UNL1       -0.4740
     28 C         139.7373  146.1249  161.8332 C.3     1  UNL1        0.2226
     29 C         139.6819  145.2856  163.0751 C.3     1  UNL1        0.1201
     30 C         144.7407  143.0980  165.4462 C.3     1  UNL1        0.0897
     31 N         143.4761  143.6449  164.8534 N.3     1  UNL1       -0.2691
     32 C         142.1485  143.0865  165.2726 C.3     1  UNL1        0.0897
     33 C         140.8838  143.6334  164.6799 C.3     1  UNL1        0.0898
     34 N         140.9466  144.7387  163.6679 N.3     1  UNL1       -0.2672
     35 C         142.2741  145.2972  163.2486 C.3     1  UNL1        0.0898
     36 C         143.5389  144.7503  163.8414 C.3     1  UNL1        0.0897
@<TRIPOS>BOND
     1    30    31    1
     2    31    32    1
     3    32    33    1
     4    33    34    1
     5    34    29    1
     6    29    28    1
     7    28    27    1
     8    27    21    1
     9    21    22   ar
    10    22    23   ar
    11    23    24   ar
    12    24    25   ar
    13    25    20    1
    14    20     1    1
    15     1     2    2
    16     1     3   am
    17     3     5    1
    18     5     6   ar
    19     6     7   ar
    20     7    10    1
    21    10    11   ar
    22    11    12   ar
    23    12    13   ar
    24    13    14   ar
    25    14    15   ar
    26    15    16   ar
    27    16    17   ar
    28    17    18   ar
    29     7     8   ar
    30     8     9   ar
    31    25    26   ar
    32    34    35    1
    33    35    36    1
    34    36    31    1
    35    26    21   ar
    36     9     5   ar
    37    18    10   ar
    38    18    13    1
    39     3     4    1
    40    14    19    1
@<TRIPOS>MOLECULE
*****
 36 40 0 0 0
SMALL
GASTEIGER

@<TRIPOS>ATOM
      1 C         138.5355  139.1868  160.2780 C.2     1  UNL1        0.2320
      2 O         139.2428  138.0629  160.9754 O.2     1  UNL1       -0.2744
      3 N         138.9234  139.5637  158.8789 N.am    1  UNL1       -0.2639
      4 H         138.4591  140.3014  158.4212 H       1  UNL1        0.1567
      5 C         140.0185  138.8167  158.1773 C.ar    1  UNL1        0.1655
      6 N         139.8407  137.6257  157.2829 N.ar    1  UNL1       -0.2239
      7 C         141.1961  137.2024  156.7996 C.ar    1  UNL1        0.0913
      8 C         142.2117  138.1318  157.3952 C.ar    1  UNL1        0.0573
      9 S         141.4840  139.1294  158.2467 S.2     1  UNL1       -0.0508
     10 C         141.4852  136.0518  155.8817 C.ar    1  UNL1        0.0403
     11 C         140.8864  135.8353  154.5236 C.ar    1  UNL1        0.1021
     12 N         141.4550  134.5653  153.9634 N.ar    1  UNL1       -0.2269
     13 C         142.4054  133.9969  154.9753 C.ar    1  UNL1        0.1406
     14 N         143.2561  132.7616  154.9703 N.ar    1  UNL1       -0.3374
     15 C         144.1255  132.4449  156.1509 C.ar    1  UNL1        0.0735
     16 C         144.1441  133.3636  157.3365 C.ar    1  UNL1        0.0186
     17 C         143.2934  134.5990  157.3415 C.ar    1  UNL1        0.0046
     18 C         142.4240  134.9156  156.1609 C.ar    1  UNL1        0.0370
     19 H         143.2438  132.1586  154.1922 H       1  UNL1        0.1674
     20 C         137.4402  139.9339  160.9797 C.3     1  UNL1        0.1118
     21 C         138.4024  143.5112  162.4036 C.ar    1  UNL1        0.1383
     22 C         138.4585  143.2250  163.8750 C.ar    1  UNL1        0.0369
     23 C         138.1751  141.8417  164.3813 C.ar    1  UNL1        0.0028
     24 C         137.8357  140.7447  163.4162 C.ar    1  UNL1       -0.0036
     25 C         137.7796  141.0309  161.9448 C.ar    1  UNL1       -0.0101
     26 C         138.0630  142.4142  161.4385 C.ar    1  UNL1        0.0331
     27 O         138.6858  144.8945  161.8974 O.3     1  UNL1       -0.4740
     28 C         140.0810  145.4425  161.9535 C.3     1  UNL1        0.2226
     29 C         141.1416  144.8876  161.0494 C.3     1  UNL1        0.1201
     30 C         145.7331  141.7917  163.3587 C.3     1  UNL1        0.0897
     31 N         144.5853  142.5656  162.7813 N.3     1  UNL1       -0.2691
     32 C         144.0320  143.7488  163.5189 C.3     1  UNL1        0.0897
     33 C         142.8842  144.5228  162.9416 C.3     1  UNL1        0.0898
     34 N         142.2895  144.1136  161.6267 N.3     1  UNL1       -0.2672
     35 C         142.8427  142.9304  160.8892 C.3     1  UNL1        0.0898
     36 C         143.9906  142.1564  161.4665 C.3     1  UNL1        0.0897
@<TRIPOS>BOND
     1    30    31    1
     2    31    32    1
     3    32    33    1
     4    33    34    1
     5    34    29    1
     6    29    28    1
     7    28    27    1
     8    27    21    1
     9    21    22   ar
    10    22    23   ar
    11    23    24   ar
    12    24    25   ar
    13    25    20    1
    14    20     1    1
    15     1     2    2
    16     1     3   am
    17     3     5    1
    18     5     6   ar
    19     6     7   ar
    20     7    10    1
    21    10    11   ar
    22    11    12   ar
    23    12    13   ar
    24    13    14   ar
    25    14    15   ar
    26    15    16   ar
    27    16    17   ar
    28    17    18   ar
    29     7     8   ar
    30     8     9   ar
    31    25    26   ar
    32    34    35    1
    33    35    36    1
    34    36    31    1
    35    26    21   ar
    36     9     5   ar
    37    18    10   ar
    38    18    13    1
    39     3     4    1
    40    14    19    1
@<TRIPOS>MOLECULE
*****
 36 40 0 0 0
SMALL
GASTEIGER

@<TRIPOS>ATOM
      1 C         139.3069  138.6347  162.9966 C.2     1  UNL1        0.2320
      2 O         138.2401  139.6872  163.0593 O.2     1  UNL1       -0.2744
      3 N         139.9171  138.1091  164.2620 N.am    1  UNL1       -0.2639
      4 H         140.6174  137.4183  164.2209 H       1  UNL1        0.1567
      5 C         139.4605  138.6359  165.5901 C.ar    1  UNL1        0.1655
      6 N         140.2730  139.4725  166.5334 N.ar    1  UNL1       -0.2239
      7 C         139.4259  139.7723  167.7344 C.ar    1  UNL1        0.0913
      8 C         138.0897  139.1210  167.5334 C.ar    1  UNL1        0.0573
      9 S         138.1111  138.4187  166.2081 S.2     1  UNL1       -0.0508
     10 C         139.8418  140.5814  168.9271 C.ar    1  UNL1        0.0403
     11 C         139.0120  140.8407  170.1494 C.ar    1  UNL1        0.1021
     12 N         139.8180  141.6927  171.0845 N.ar    1  UNL1       -0.2269
     13 C         141.1459  141.9600  170.4401 C.ar    1  UNL1        0.1406
     14 N         142.3435  142.7401  170.8952 N.ar    1  UNL1       -0.3374
     15 C         143.5558  142.8332  170.0169 C.ar    1  UNL1        0.0735
     16 C         143.5706  142.1464  168.6835 C.ar    1  UNL1        0.0186
     17 C         142.3730  141.3663  168.2284 C.ar    1  UNL1        0.0046
     18 C         141.1606  141.2731  169.1067 C.ar    1  UNL1        0.0370
     19 H         142.3338  143.1909  171.7704 H       1  UNL1        0.1674
     20 C         139.7636  138.1078  161.6685 C.3     1  UNL1        0.1118
     21 C         143.4579  139.5346  161.4089 C.ar    1  UNL1        0.1383
     22 C         143.6765  139.4870  159.9257 C.ar    1  UNL1        0.0369
     23 C         142.5909  138.9797  159.0234 C.ar    1  UNL1        0.0028
     24 C         141.2866  138.5200  159.6043 C.ar    1  UNL1       -0.0036
     25 C         141.0679  138.5676  161.0875 C.ar    1  UNL1       -0.0101
     26 C         142.1535  139.0749  161.9899 C.ar    1  UNL1        0.0331
     27 O         144.5435  140.0419  162.3111 O.3     1  UNL1       -0.4740
     28 C         144.4737  141.4372  162.8573 C.3     1  UNL1        0.2226
     29 C         143.5853  142.4545  162.2047 C.3     1  UNL1        0.1201
     30 C         138.9354  144.7524  165.2210 C.3     1  UNL1        0.0897
     31 N         140.0979  144.1779  164.4670 N.3     1  UNL1       -0.2691
     32 C         140.7415  144.9673  163.3657 C.3     1  UNL1        0.0897
     33 C         141.9039  144.3928  162.6117 C.3     1  UNL1        0.0898
     34 N         142.4228  143.0289  162.9588 N.3     1  UNL1       -0.2672
     35 C         141.7793  142.2395  164.0600 C.3     1  UNL1        0.0898
     36 C         140.6168  142.8140  164.8141 C.3     1  UNL1        0.0897
@<TRIPOS>BOND
     1    30    31    1
     2    31    32    1
     3    32    33    1
     4    33    34    1
     5    34    29    1
     6    29    28    1
     7    28    27    1
     8    27    21    1
     9    21    22   ar
    10    22    23   ar
    11    23    24   ar
    12    24    25   ar
    13    25    20    1
    14    20     1    1
    15     1     2    2
    16     1     3   am
    17     3     5    1
    18     5     6   ar
    19     6     7   ar
    20     7    10    1
    21    10    11   ar
    22    11    12   ar
    23    12    13   ar
    24    13    14   ar
    25    14    15   ar
    26    15    16   ar
    27    16    17   ar
    28    17    18   ar
    29     7     8   ar
    30     8     9   ar
    31    25    26   ar
    32    34    35    1
    33    35    36    1
    34    36    31    1
    35    26    21   ar
    36     9     5   ar
    37    18    10   ar
    38    18    13    1
    39     3     4    1
    40    14    19    1
@<TRIPOS>MOLECULE
*****
 36 40 0 0 0
SMALL
GASTEIGER

@<TRIPOS>ATOM
      1 C         143.8770  141.6853  161.6961 C.2     1  UNL1        0.2320
      2 O         145.1759  141.2864  162.3316 O.2     1  UNL1       -0.2744
      3 N         142.5779  141.2689  162.3197 N.am    1  UNL1       -0.2639
      4 H         141.7254  141.5307  161.9026 H       1  UNL1        0.1567
      5 C         142.5776  140.4536  163.5787 C.ar    1  UNL1        0.1655
      6 N         142.4510  140.9874  164.9748 N.ar    1  UNL1       -0.2239
      7 C         142.4990  139.8251  165.9217 C.ar    1  UNL1        0.0913
      8 C         142.6553  138.5728  165.1108 C.ar    1  UNL1        0.0573
      9 S         142.7039  138.9613  163.6628 S.2     1  UNL1       -0.0508
     10 C         142.4069  139.9015  167.4169 C.ar    1  UNL1        0.0403
     11 C         142.9586  138.8988  168.3866 C.ar    1  UNL1        0.1021
     12 N         142.6396  139.3716  169.7739 N.ar    1  UNL1       -0.2269
     13 C         141.8908  140.6665  169.6616 C.ar    1  UNL1        0.1406
     14 N         141.3213  141.5897  170.6976 N.ar    1  UNL1       -0.3374
     15 C         140.6080  142.8404  170.2769 C.ar    1  UNL1        0.0735
     16 C         140.4643  143.1678  168.8201 C.ar    1  UNL1        0.0186
     17 C         141.0337  142.2446  167.7841 C.ar    1  UNL1        0.0046
     18 C         141.7470  140.9940  168.2049 C.ar    1  UNL1        0.0370
     19 H         141.4157  141.3748  171.6537 H       1  UNL1        0.1674
     20 C         143.8773  142.5007  160.4370 C.3     1  UNL1        0.1118
     21 C         140.9247  145.1040  160.9424 C.ar    1  UNL1        0.1383
     22 C         140.4285  145.2467  159.5341 C.ar    1  UNL1        0.0369
     23 C         141.0819  144.4742  158.4268 C.ar    1  UNL1        0.0028
     24 C         142.2315  143.5589  158.7277 C.ar    1  UNL1       -0.0036
     25 C         142.7277  143.4160  160.1360 C.ar    1  UNL1       -0.0101
     26 C         142.0743  144.1886  161.2435 C.ar    1  UNL1        0.0331
     27 O         140.2713  145.8765  162.0498 O.3     1  UNL1       -0.4740
     28 C         139.4826  145.1561  163.1029 C.3     1  UNL1        0.2226
     29 C         138.4788  144.1143  162.7067 C.3     1  UNL1        0.1201
     30 C         139.0054  138.5037  164.7667 C.3     1  UNL1        0.0897
     31 N         138.8737  139.9063  164.2516 N.3     1  UNL1       -0.2691
     32 C         138.7437  141.0496  165.2140 C.3     1  UNL1        0.0897
     33 C         138.6121  142.4521  164.6990 C.3     1  UNL1        0.0898
     34 N         138.6104  142.7116  163.2216 N.3     1  UNL1       -0.2672
     35 C         138.7404  141.5685  162.2592 C.3     1  UNL1        0.0898
     36 C         138.8721  140.1658  162.7742 C.3     1  UNL1        0.0897
@<TRIPOS>BOND
     1    30    31    1
     2    31    32    1
     3    32    33    1
     4    33    34    1
     5    34    29    1
     6    29    28    1
     7    28    27    1
     8    27    21    1
     9    21    22   ar
    10    22    23   ar
    11    23    24   ar
    12    24    25   ar
    13    25    20    1
    14    20     1    1
    15     1     2    2
    16     1     3   am
    17     3     5    1
    18     5     6   ar
    19     6     7   ar
    20     7    10    1
    21    10    11   ar
    22    11    12   ar
    23    12    13   ar
    24    13    14   ar
    25    14    15   ar
    26    15    16   ar
    27    16    17   ar
    28    17    18   ar
    29     7     8   ar
    30     8     9   ar
    31    25    26   ar
    32    34    35    1
    33    35    36    1
    34    36    31    1
    35    26    21   ar
    36     9     5   ar
    37    18    10   ar
    38    18    13    1
    39     3     4    1
    40    14    19    1
