@<TRIPOS>MOLECULE
*****
 34 38 0 0 0
SMALL
GASTEIGER

@<TRIPOS>ATOM
      1 C         141.2922  143.2809  162.5733 C.ar    1  UNL1        0.1458
      2 N         141.5683  142.9813  161.1296 N.ar    1  UNL1       -0.2249
      3 C         140.4295  142.7910  160.1721 C.ar    1  UNL1        0.1260
      4 C         140.3930  142.4883  158.7034 C.ar    1  UNL1        0.1212
      5 N         138.9556  142.4104  158.2818 N.ar    1  UNL1       -0.2265
      6 N         138.1037  142.6650  159.4899 N.ar    1  UNL1       -0.1586
      7 C         139.0146  142.9002  160.6582 C.ar    1  UNL1        0.1762
      8 C         138.7386  143.1998  162.1018 C.ar    1  UNL1        0.2829
      9 O         137.3237  143.3090  162.5879 O.2     1  UNL1       -0.2652
     10 N         139.8774  143.3901  163.0593 N.ar    1  UNL1       -0.2793
     11 C         142.5303  140.9048  163.9228 C.3     1  UNL1        0.0311
     12 C         143.0501  142.2832  164.2056 C.ar    1  UNL1       -0.0189
     13 C         144.1889  142.4735  165.1632 C.ar    1  UNL1       -0.0042
     14 C         144.7086  143.8519  165.4459 C.ar    1  UNL1       -0.0003
     15 C         144.0896  145.0399  164.7712 C.ar    1  UNL1        0.0001
     16 C         142.9508  144.8496  163.8136 C.ar    1  UNL1        0.0027
     17 C         142.4310  143.4712  163.5309 C.ar    1  UNL1        0.0303
     18 C         138.4574  142.1276  156.8955 C.ar    1  UNL1        0.0830
     19 C         137.2657  142.8657  156.3616 C.ar    1  UNL1        0.0200
     20 C         136.7676  142.5828  154.9753 C.ar    1  UNL1        0.0129
     21 C         137.4612  141.5619  154.1228 C.ar    1  UNL1        0.0578
     22 CL        136.9631  141.2790  152.7365 Cl      1  UNL1       -0.0822
     23 C         138.6529  140.8237  154.6567 C.ar    1  UNL1        0.0129
     24 C         139.1510  141.1066  156.0431 C.ar    1  UNL1        0.0200
     25 C         139.6013  143.6897  164.5030 C.3     1  UNL1        0.1119
     26 C         139.7078  142.6005  165.5287 C.3     1  UNL1        0.0388
     27 C         140.4640  142.8404  166.8018 C.3     1  UNL1        0.0048
     28 C         140.5705  141.7511  167.8275 C.3     1  UNL1        0.0174
     29 C         139.9208  140.4218  167.5802 C.3     1  UNL1        0.0720
     30 N         139.1647  140.1819  166.3071 N.3     1  UNL1       -0.2739
     31 C         139.0582  141.2712  165.2814 C.3     1  UNL1        0.0739
     32 C         138.5150  138.8527  166.0598 C.3     1  UNL1        0.0576
     33 C         137.5318  138.3027  167.0500 C.3     1  UNL1        0.0173
     34 C         138.8488  138.0735  164.8222 C.3     1  UNL1        0.0173
@<TRIPOS>BOND
     1    11    12    1
     2    12    13   ar
     3    13    14   ar
     4    14    15   ar
     5    15    16   ar
     6    16    17   ar
     7    17     1    1
     8     1     2   ar
     9     2     3   ar
    10     3     4   ar
    11     4     5   ar
    12     5    18    1
    13    18    19   ar
    14    19    20   ar
    15    20    21   ar
    16    21    22    1
    17    21    23   ar
    18    23    24   ar
    19     5     6   ar
    20     6     7   ar
    21     7     8   ar
    22     8     9    2
    23     8    10   ar
    24    10    25    1
    25    25    26    1
    26    26    27    1
    27    27    28    1
    28    28    29    1
    29    29    30    1
    30    30    32    1
    31    32    33    1
    32    32    34    1
    33    30    31    1
    34    17    12   ar
    35    10     1   ar
    36    31    26    1
    37     7     3   ar
    38    24    18   ar
@<TRIPOS>MOLECULE
*****
 34 38 0 0 0
SMALL
GASTEIGER

@<TRIPOS>ATOM
      1 C         140.6816  142.2965  161.8740 C.ar    1  UNL1        0.1458
      2 N         141.7195  143.0619  161.1078 N.ar    1  UNL1       -0.2249
      3 C         142.5851  142.3559  160.1067 C.ar    1  UNL1        0.1260
      4 C         143.6835  142.8432  159.2089 C.ar    1  UNL1        0.1212
      5 N         144.1900  141.6729  158.4190 N.ar    1  UNL1       -0.2265
      6 N         143.4046  140.4623  158.8286 N.ar    1  UNL1       -0.1586
      7 C         142.4127  140.8844  159.8717 C.ar    1  UNL1        0.1762
      8 C         141.3748  140.1191  160.6378 C.ar    1  UNL1        0.2829
      9 O         141.2025  138.6476  160.4029 O.2     1  UNL1       -0.2652
     10 N         140.5093  140.8251  161.6390 N.ar    1  UNL1       -0.2793
     11 C         141.7847  143.0118  164.5705 C.3     1  UNL1        0.0311
     12 C         140.3676  143.3602  164.2235 C.ar    1  UNL1       -0.0189
     13 C         139.5020  144.0663  165.2246 C.ar    1  UNL1       -0.0042
     14 C         138.0849  144.4146  164.8775 C.ar    1  UNL1       -0.0003
     15 C         137.5334  144.0569  163.5292 C.ar    1  UNL1        0.0001
     16 C         138.3989  143.3509  162.5281 C.ar    1  UNL1        0.0027
     17 C         139.8160  143.0025  162.8752 C.ar    1  UNL1        0.0303
     18 C         145.2889  141.7071  157.3987 C.ar    1  UNL1        0.0830
     19 C         146.4319  142.6651  157.5593 C.ar    1  UNL1        0.0200
     20 C         147.5309  142.6993  156.5388 C.ar    1  UNL1        0.0129
     21 C         147.4868  141.7756  155.3579 C.ar    1  UNL1        0.0578
     22 CL        148.5858  141.8098  154.3375 Cl      1  UNL1       -0.0822
     23 C         146.3438  140.8176  155.1972 C.ar    1  UNL1        0.0129
     24 C         145.2449  140.7834  156.2177 C.ar    1  UNL1        0.0200
     25 C         139.4714  140.0597  162.4052 C.3     1  UNL1        0.1119
     26 C         139.5964  139.9088  163.8922 C.3     1  UNL1        0.0388
     27 C         138.3884  140.0708  164.7667 C.3     1  UNL1        0.0048
     28 C         138.5134  139.9199  166.2538 C.3     1  UNL1        0.0174
     29 C         139.8465  139.6071  166.8666 C.3     1  UNL1        0.0720
     30 N         141.0544  139.4452  165.9921 N.3     1  UNL1       -0.2739
     31 C         140.9293  139.5960  164.5050 C.3     1  UNL1        0.0739
     32 C         142.3873  139.1324  166.6049 C.3     1  UNL1        0.0576
     33 C         143.4187  138.3830  165.8147 C.3     1  UNL1        0.0173
     34 C         142.6888  139.5691  168.0080 C.3     1  UNL1        0.0173
@<TRIPOS>BOND
     1    11    12    1
     2    12    13   ar
     3    13    14   ar
     4    14    15   ar
     5    15    16   ar
     6    16    17   ar
     7    17     1    1
     8     1     2   ar
     9     2     3   ar
    10     3     4   ar
    11     4     5   ar
    12     5    18    1
    13    18    19   ar
    14    19    20   ar
    15    20    21   ar
    16    21    22    1
    17    21    23   ar
    18    23    24   ar
    19     5     6   ar
    20     6     7   ar
    21     7     8   ar
    22     8     9    2
    23     8    10   ar
    24    10    25    1
    25    25    26    1
    26    26    27    1
    27    27    28    1
    28    28    29    1
    29    29    30    1
    30    30    32    1
    31    32    33    1
    32    32    34    1
    33    30    31    1
    34    17    12   ar
    35    10     1   ar
    36    31    26    1
    37     7     3   ar
    38    24    18   ar
@<TRIPOS>MOLECULE
*****
 34 38 0 0 0
SMALL
GASTEIGER

@<TRIPOS>ATOM
      1 C         141.5155  143.1589  162.7098 C.ar    1  UNL1        0.1458
      2 N         141.5534  143.2607  161.2137 N.ar    1  UNL1       -0.2249
      3 C         142.8231  142.9605  160.4735 C.ar    1  UNL1        0.1260
      4 C         143.1604  142.9758  159.0121 C.ar    1  UNL1        0.1212
      5 N         144.6007  142.5834  158.8647 N.ar    1  UNL1       -0.2265
      6 N         145.1534  142.3255  160.2351 N.ar    1  UNL1       -0.1586
      7 C         144.0548  142.5586  161.2294 C.ar    1  UNL1        0.1762
      8 C         144.0169  142.4568  162.7255 C.ar    1  UNL1        0.2829
      9 O         145.2486  142.0549  163.4814 O.2     1  UNL1       -0.2652
     10 N         142.7472  142.7570  163.4656 N.ar    1  UNL1       -0.2793
     11 C         139.1924  141.2692  162.5308 C.3     1  UNL1        0.0311
     12 C         139.0842  142.5142  163.3606 C.ar    1  UNL1       -0.0189
     13 C         137.8146  142.8143  164.1007 C.ar    1  UNL1       -0.0042
     14 C         137.7065  144.0593  164.9304 C.ar    1  UNL1       -0.0003
     15 C         138.8681  145.0041  165.0199 C.ar    1  UNL1        0.0001
     16 C         140.1377  144.7040  164.2797 C.ar    1  UNL1        0.0027
     17 C         140.2458  143.4590  163.4501 C.ar    1  UNL1        0.0303
     18 C         145.3556  142.4689  157.5736 C.ar    1  UNL1        0.0830
     19 C         146.8148  142.8130  157.5250 C.ar    1  UNL1        0.0200
     20 C         147.5697  142.6984  156.2338 C.ar    1  UNL1        0.0129
     21 C         146.8655  142.2398  154.9913 C.ar    1  UNL1        0.0578
     22 CL        147.6205  142.1253  153.7002 Cl      1  UNL1       -0.0822
     23 C         145.4063  141.8957  155.0400 C.ar    1  UNL1        0.0129
     24 C         144.6514  142.0103  156.3311 C.ar    1  UNL1        0.0200
     25 C         142.7093  142.6551  164.9618 C.3     1  UNL1        0.1119
     26 C         141.7455  141.7170  165.6255 C.3     1  UNL1        0.0388
     27 C         141.0384  142.1327  166.8815 C.3     1  UNL1        0.0048
     28 C         140.0746  141.1945  167.5452 C.3     1  UNL1        0.0174
     29 C         139.8176  139.8404  166.9530 C.3     1  UNL1        0.0720
     30 N         140.5246  139.4246  165.6971 N.3     1  UNL1       -0.2739
     31 C         141.4885  140.3630  165.0334 C.3     1  UNL1        0.0739
     32 C         140.2676  138.0706  165.1050 C.3     1  UNL1        0.0576
     33 C         138.8780  137.5061  165.0990 C.3     1  UNL1        0.0173
     34 C         141.4005  137.2812  164.5187 C.3     1  UNL1        0.0173
@<TRIPOS>BOND
     1    11    12    1
     2    12    13   ar
     3    13    14   ar
     4    14    15   ar
     5    15    16   ar
     6    16    17   ar
     7    17     1    1
     8     1     2   ar
     9     2     3   ar
    10     3     4   ar
    11     4     5   ar
    12     5    18    1
    13    18    19   ar
    14    19    20   ar
    15    20    21   ar
    16    21    22    1
    17    21    23   ar
    18    23    24   ar
    19     5     6   ar
    20     6     7   ar
    21     7     8   ar
    22     8     9    2
    23     8    10   ar
    24    10    25    1
    25    25    26    1
    26    26    27    1
    27    27    28    1
    28    28    29    1
    29    29    30    1
    30    30    32    1
    31    32    33    1
    32    32    34    1
    33    30    31    1
    34    17    12   ar
    35    10     1   ar
    36    31    26    1
    37     7     3   ar
    38    24    18   ar
@<TRIPOS>MOLECULE
*****
 34 38 0 0 0
SMALL
GASTEIGER

@<TRIPOS>ATOM
      1 C         141.3631  142.2248  162.3582 C.ar    1  UNL1        0.1458
      2 N         141.8101  141.5822  161.0786 N.ar    1  UNL1       -0.2249
      3 C         140.7989  140.9800  160.1486 C.ar    1  UNL1        0.1260
      4 C         140.9398  140.2840  158.8273 C.ar    1  UNL1        0.1212
      5 N         139.5686  139.8943  158.3603 N.ar    1  UNL1       -0.2265
      6 N         138.5804  140.3495  159.3929 N.ar    1  UNL1       -0.1586
      7 C         139.3408  141.0205  160.4982 C.ar    1  UNL1        0.1762
      8 C         138.8939  141.6631  161.7777 C.ar    1  UNL1        0.2829
      9 O         137.4357  141.7036  162.1273 O.2     1  UNL1       -0.2652
     10 N         139.9050  142.2653  162.7077 N.ar    1  UNL1       -0.2793
     11 C         142.7690  140.4970  164.3676 C.3     1  UNL1        0.0311
     12 C         143.0773  141.9631  164.2929 C.ar    1  UNL1       -0.0189
     13 C         144.0885  142.5652  165.2229 C.ar    1  UNL1       -0.0042
     14 C         144.3967  144.0313  165.1482 C.ar    1  UNL1       -0.0003
     15 C         143.6937  144.8953  164.1435 C.ar    1  UNL1        0.0001
     16 C         142.6826  144.2931  163.2135 C.ar    1  UNL1        0.0027
     17 C         142.3743  142.8270  163.2882 C.ar    1  UNL1        0.0303
     18 C         139.2428  139.1757  157.0846 C.ar    1  UNL1        0.0830
     19 C         139.6899  137.7575  156.8875 C.ar    1  UNL1        0.0200
     20 C         139.3641  137.0389  155.6118 C.ar    1  UNL1        0.0129
     21 C         138.5912  137.7384  154.5332 C.ar    1  UNL1        0.0578
     22 CL        138.2655  137.0197  153.2575 Cl      1  UNL1       -0.0822
     23 C         138.1442  139.1566  154.7303 C.ar    1  UNL1        0.0129
     24 C         138.4700  139.8752  156.0060 C.ar    1  UNL1        0.0200
     25 C         139.4580  142.9079  163.9873 C.3     1  UNL1        0.1119
     26 C         139.6183  142.1792  165.2885 C.3     1  UNL1        0.0388
     27 C         139.0715  140.7910  165.4431 C.3     1  UNL1        0.0048
     28 C         139.2318  140.0623  166.7443 C.3     1  UNL1        0.0174
     29 C         139.9390  140.7218  167.8910 C.3     1  UNL1        0.0720
     30 N         140.4859  142.1100  167.7365 N.3     1  UNL1       -0.2739
     31 C         140.3255  142.8387  166.4352 C.3     1  UNL1        0.0739
     32 C         141.1931  142.7694  168.8833 C.3     1  UNL1        0.0576
     33 C         142.6418  142.4768  169.1392 C.3     1  UNL1        0.0173
     34 C         140.4514  143.7215  169.7741 C.3     1  UNL1        0.0173
@<TRIPOS>BOND
     1    11    12    1
     2    12    13   ar
     3    13    14   ar
     4    14    15   ar
     5    15    16   ar
     6    16    17   ar
     7    17     1    1
     8     1     2   ar
     9     2     3   ar
    10     3     4   ar
    11     4     5   ar
    12     5    18    1
    13    18    19   ar
    14    19    20   ar
    15    20    21   ar
    16    21    22    1
    17    21    23   ar
    18    23    24   ar
    19     5     6   ar
    20     6     7   ar
    21     7     8   ar
    22     8     9    2
    23     8    10   ar
    24    10    25    1
    25    25    26    1
    26    26    27    1
    27    27    28    1
    28    28    29    1
    29    29    30    1
    30    30    32    1
    31    32    33    1
    32    32    34    1
    33    30    31    1
    34    17    12   ar
    35    10     1   ar
    36    31    26    1
    37     7     3   ar
    38    24    18   ar
@<TRIPOS>MOLECULE
*****
 34 38 0 0 0
SMALL
GASTEIGER

@<TRIPOS>ATOM
      1 C         141.7749  141.8015  162.0489 C.ar    1  UNL1        0.1458
      2 N         141.5294  141.3448  160.6413 N.ar    1  UNL1       -0.2249
      3 C         140.2774  141.7585  159.9263 C.ar    1  UNL1        0.1260
      4 C         139.7661  141.4659  158.5468 C.ar    1  UNL1        0.1212
      5 N         138.4437  142.1556  158.3867 N.ar    1  UNL1       -0.2265
      6 N         138.1377  142.8744  159.6672 N.ar    1  UNL1       -0.1586
      7 C         139.2710  142.6290  160.6187 C.ar    1  UNL1        0.1762
      8 C         139.5166  143.0857  162.0262 C.ar    1  UNL1        0.2829
      9 O         138.5103  143.9562  162.7187 O.2     1  UNL1       -0.2652
     10 N         140.7686  142.6720  162.7413 N.ar    1  UNL1       -0.2793
     11 C         144.1688  143.6097  162.0504 C.3     1  UNL1        0.0311
     12 C         144.2239  142.2918  162.7648 C.ar    1  UNL1       -0.0189
     13 C         145.4759  141.8781  163.4798 C.ar    1  UNL1       -0.0042
     14 C         145.5309  140.5602  164.1942 C.ar    1  UNL1       -0.0003
     15 C         144.3340  139.6561  164.1934 C.ar    1  UNL1        0.0001
     16 C         143.0821  140.0699  163.4783 C.ar    1  UNL1        0.0027
     17 C         143.0270  141.3878  162.7640 C.ar    1  UNL1        0.0303
     18 C         137.5791  142.1308  157.1612 C.ar    1  UNL1        0.0830
     19 C         136.6869  140.9544  156.8965 C.ar    1  UNL1        0.0200
     20 C         135.8222  140.9297  155.6710 C.ar    1  UNL1        0.0129
     21 C         135.8498  142.0813  154.7102 C.ar    1  UNL1        0.0578
     22 CL        134.9851  142.0565  153.4848 Cl      1  UNL1       -0.0822
     23 C         136.7420  143.2577  154.9750 C.ar    1  UNL1        0.0129
     24 C         137.6066  143.2824  156.2005 C.ar    1  UNL1        0.0200
     25 C         141.0142  143.1287  164.1489 C.3     1  UNL1        0.1119
     26 C         140.6326  142.2471  165.3008 C.3     1  UNL1        0.0388
     27 C         141.0242  142.6273  166.6981 C.3     1  UNL1        0.0048
     28 C         140.6427  141.7457  167.8500 C.3     1  UNL1        0.0174
     29 C         139.8695  140.4838  167.6048 C.3     1  UNL1        0.0720
     30 N         139.4779  140.1036  166.2076 N.3     1  UNL1       -0.2739
     31 C         139.8595  140.9853  165.0556 C.3     1  UNL1        0.0739
     32 C         138.7047  138.8418  165.9625 C.3     1  UNL1        0.0576
     33 C         139.0120  137.9950  164.7632 C.3     1  UNL1        0.0173
     34 C         137.6242  138.4270  166.9167 C.3     1  UNL1        0.0173
@<TRIPOS>BOND
     1    11    12    1
     2    12    13   ar
     3    13    14   ar
     4    14    15   ar
     5    15    16   ar
     6    16    17   ar
     7    17     1    1
     8     1     2   ar
     9     2     3   ar
    10     3     4   ar
    11     4     5   ar
    12     5    18    1
    13    18    19   ar
    14    19    20   ar
    15    20    21   ar
    16    21    22    1
    17    21    23   ar
    18    23    24   ar
    19     5     6   ar
    20     6     7   ar
    21     7     8   ar
    22     8     9    2
    23     8    10   ar
    24    10    25    1
    25    25    26    1
    26    26    27    1
    27    27    28    1
    28    28    29    1
    29    29    30    1
    30    30    32    1
    31    32    33    1
    32    32    34    1
    33    30    31    1
    34    17    12   ar
    35    10     1   ar
    36    31    26    1
    37     7     3   ar
    38    24    18   ar
@<TRIPOS>MOLECULE
*****
 34 38 0 0 0
SMALL
GASTEIGER

@<TRIPOS>ATOM
      1 C         141.0268  142.1915  162.0175 C.ar    1  UNL1        0.1458
      2 N         141.7560  142.9595  160.9551 N.ar    1  UNL1       -0.2249
      3 C         142.7107  142.2517  160.0400 C.ar    1  UNL1        0.1260
      4 C         143.5656  142.7407  158.9086 C.ar    1  UNL1        0.1212
      5 N         144.3196  141.5673  158.3566 N.ar    1  UNL1       -0.2265
      6 N         143.9306  140.3531  159.1468 N.ar    1  UNL1       -0.1586
      7 C         142.9363  140.7761  160.1872 C.ar    1  UNL1        0.1762
      8 C         142.2071  140.0082  161.2496 C.ar    1  UNL1        0.2829
      9 O         142.4326  138.5326  161.3968 O.2     1  UNL1       -0.2652
     10 N         141.2523  140.7160  162.1647 N.ar    1  UNL1       -0.2793
     11 C         142.0532  143.5908  164.4647 C.3     1  UNL1        0.0311
     12 C         140.5852  143.5990  164.1563 C.ar    1  UNL1       -0.0189
     13 C         139.6304  144.3067  165.0715 C.ar    1  UNL1       -0.0042
     14 C         138.1625  144.3148  164.7631 C.ar    1  UNL1       -0.0003
     15 C         137.6493  143.6152  163.5395 C.ar    1  UNL1        0.0001
     16 C         138.6041  142.9074  162.6244 C.ar    1  UNL1        0.0027
     17 C         140.0720  142.8993  162.9328 C.ar    1  UNL1        0.0303
     18 C         145.2918  141.6020  157.2149 C.ar    1  UNL1        0.0830
     19 C         146.4733  142.5248  157.2637 C.ar    1  UNL1        0.0200
     20 C         147.4455  142.5594  156.1219 C.ar    1  UNL1        0.0129
     21 C         147.2362  141.6713  154.9313 C.ar    1  UNL1        0.0578
     22 CL        148.2084  141.7060  153.7896 Cl      1  UNL1       -0.0822
     23 C         146.0547  140.7485  154.8825 C.ar    1  UNL1        0.0129
     24 C         145.0825  140.7139  156.0243 C.ar    1  UNL1        0.0200
     25 C         140.5231  139.9480  163.2271 C.3     1  UNL1        0.1119
     26 C         141.0965  139.8514  164.6098 C.3     1  UNL1        0.0388
     27 C         142.3595  139.0772  164.8457 C.3     1  UNL1        0.0048
     28 C         142.9328  138.9806  166.2283 C.3     1  UNL1        0.0174
     29 C         142.2432  139.6582  167.3753 C.3     1  UNL1        0.0720
     30 N         140.9803  140.4324  167.1395 N.3     1  UNL1       -0.2739
     31 C         140.4069  140.5290  165.7567 C.3     1  UNL1        0.0739
     32 C         140.2907  141.1100  168.2864 C.3     1  UNL1        0.0576
     33 C         139.4157  140.3159  169.2103 C.3     1  UNL1        0.0173
     34 C         140.4763  142.5817  168.5093 C.3     1  UNL1        0.0173
@<TRIPOS>BOND
     1    11    12    1
     2    12    13   ar
     3    13    14   ar
     4    14    15   ar
     5    15    16   ar
     6    16    17   ar
     7    17     1    1
     8     1     2   ar
     9     2     3   ar
    10     3     4   ar
    11     4     5   ar
    12     5    18    1
    13    18    19   ar
    14    19    20   ar
    15    20    21   ar
    16    21    22    1
    17    21    23   ar
    18    23    24   ar
    19     5     6   ar
    20     6     7   ar
    21     7     8   ar
    22     8     9    2
    23     8    10   ar
    24    10    25    1
    25    25    26    1
    26    26    27    1
    27    27    28    1
    28    28    29    1
    29    29    30    1
    30    30    32    1
    31    32    33    1
    32    32    34    1
    33    30    31    1
    34    17    12   ar
    35    10     1   ar
    36    31    26    1
    37     7     3   ar
    38    24    18   ar
@<TRIPOS>MOLECULE
*****
 34 38 0 0 0
SMALL
GASTEIGER

@<TRIPOS>ATOM
      1 C         139.2245  141.1972  162.6645 C.ar    1  UNL1        0.1458
      2 N         139.5788  141.3216  161.2122 N.ar    1  UNL1       -0.2249
      3 C         139.7049  140.0916  160.3630 C.ar    1  UNL1        0.1260
      4 C         140.0391  139.9031  158.9130 C.ar    1  UNL1        0.1212
      5 N         140.0175  138.4322  158.6198 N.ar    1  UNL1       -0.2265
      6 N         139.6700  137.7116  159.8887 N.ar    1  UNL1       -0.1586
      7 C         139.4768  138.7373  160.9661 C.ar    1  UNL1        0.1762
      8 C         139.1225  138.6129  162.4184 C.ar    1  UNL1        0.2829
      9 O         138.8944  137.2585  163.0214 O.2     1  UNL1       -0.2652
     10 N         138.9965  139.8429  163.2675 N.ar    1  UNL1       -0.2793
     11 C         141.6719  142.4449  163.8703 C.3     1  UNL1        0.0311
     12 C         140.3221  143.0511  164.1167 C.ar    1  UNL1       -0.0189
     13 C         140.1960  144.2811  164.9659 C.ar    1  UNL1       -0.0042
     14 C         138.8462  144.8873  165.2122 C.ar    1  UNL1       -0.0003
     15 C         137.6225  144.2635  164.6093 C.ar    1  UNL1        0.0001
     16 C         137.7487  143.0335  163.7601 C.ar    1  UNL1        0.0027
     17 C         139.0984  142.4273  163.5138 C.ar    1  UNL1        0.0303
     18 C         140.2949  137.7938  157.2911 C.ar    1  UNL1        0.0830
     19 C         139.1917  137.6450  156.2856 C.ar    1  UNL1        0.0200
     20 C         139.4691  137.0066  154.9569 C.ar    1  UNL1        0.0129
     21 C         140.8496  136.5170  154.6336 C.ar    1  UNL1        0.0578
     22 CL        141.1269  135.8786  153.3048 Cl      1  UNL1       -0.0822
     23 C         141.9527  136.6657  155.6390 C.ar    1  UNL1        0.0129
     24 C         141.6753  137.3041  156.9678 C.ar    1  UNL1        0.0200
     25 C         138.6422  139.7185  164.7199 C.3     1  UNL1        0.1119
     26 C         139.7252  139.7058  165.7576 C.3     1  UNL1        0.0388
     27 C         139.4434  140.2100  167.1420 C.3     1  UNL1        0.0048
     28 C         140.5263  140.1974  168.1797 C.3     1  UNL1        0.0174
     29 C         141.8912  139.6805  167.8331 C.3     1  UNL1        0.0720
     30 N         142.1731  139.1763  166.4488 N.3     1  UNL1       -0.2739
     31 C         141.0900  139.1890  165.4110 C.3     1  UNL1        0.0739
     32 C         143.5379  138.6595  166.1023 C.3     1  UNL1        0.0576
     33 C         144.1700  137.5893  166.9418 C.3     1  UNL1        0.0173
     34 C         144.2705  139.2130  164.9161 C.3     1  UNL1        0.0173
@<TRIPOS>BOND
     1    11    12    1
     2    12    13   ar
     3    13    14   ar
     4    14    15   ar
     5    15    16   ar
     6    16    17   ar
     7    17     1    1
     8     1     2   ar
     9     2     3   ar
    10     3     4   ar
    11     4     5   ar
    12     5    18    1
    13    18    19   ar
    14    19    20   ar
    15    20    21   ar
    16    21    22    1
    17    21    23   ar
    18    23    24   ar
    19     5     6   ar
    20     6     7   ar
    21     7     8   ar
    22     8     9    2
    23     8    10   ar
    24    10    25    1
    25    25    26    1
    26    26    27    1
    27    27    28    1
    28    28    29    1
    29    29    30    1
    30    30    32    1
    31    32    33    1
    32    32    34    1
    33    30    31    1
    34    17    12   ar
    35    10     1   ar
    36    31    26    1
    37     7     3   ar
    38    24    18   ar
@<TRIPOS>MOLECULE
*****
 34 38 0 0 0
SMALL
GASTEIGER

@<TRIPOS>ATOM
      1 C         142.1758  141.7540  162.3925 C.ar    1  UNL1        0.1458
      2 N         142.9263  141.0523  161.2995 N.ar    1  UNL1       -0.2249
      3 C         142.2086  140.1020  160.3875 C.ar    1  UNL1        0.1260
      4 C         142.6802  139.2718  159.2307 C.ar    1  UNL1        0.1212
      5 N         141.5036  138.5099  158.6967 N.ar    1  UNL1       -0.2265
      6 N         140.3048  138.8692  159.5236 N.ar    1  UNL1       -0.1586
      7 C         140.7404  139.8532  160.5685 C.ar    1  UNL1        0.1762
      8 C         139.9900  140.5548  161.6615 C.ar    1  UNL1        0.2829
      9 O         138.5219  140.3061  161.8425 O.2     1  UNL1       -0.2652
     10 N         140.7078  141.5052  162.5735 N.ar    1  UNL1       -0.2793
     11 C         143.6205  140.7135  164.8070 C.3     1  UNL1        0.0311
     12 C         143.6159  142.1842  164.5118 C.ar    1  UNL1       -0.0189
     13 C         144.3336  143.1345  165.4237 C.ar    1  UNL1       -0.0042
     14 C         144.3289  144.6052  165.1284 C.ar    1  UNL1       -0.0003
     15 C         143.6066  145.1254  163.9211 C.ar    1  UNL1        0.0001
     16 C         142.8889  144.1750  163.0091 C.ar    1  UNL1        0.0027
     17 C         142.8935  142.7044  163.3045 C.ar    1  UNL1        0.0303
     18 C         141.5225  137.5561  157.5392 C.ar    1  UNL1        0.0830
     19 C         140.3259  137.4419  156.6419 C.ar    1  UNL1        0.0200
     20 C         140.3449  136.4881  155.4843 C.ar    1  UNL1        0.0129
     21 C         141.5603  135.6485  155.2241 C.ar    1  UNL1        0.0578
     22 CL        141.5792  134.6947  154.0665 Cl      1  UNL1       -0.0822
     23 C         142.7569  135.7627  156.1214 C.ar    1  UNL1        0.0129
     24 C         142.7379  136.7165  157.2789 C.ar    1  UNL1        0.0200
     25 C         139.9573  142.2068  163.6665 C.3     1  UNL1        0.1119
     26 C         139.9518  141.6407  165.0554 C.3     1  UNL1        0.0388
     27 C         139.3189  140.3065  165.3192 C.3     1  UNL1        0.0048
     28 C         139.3135  139.7404  166.7081 C.3     1  UNL1        0.0174
     29 C         139.9409  140.5084  167.8336 C.3     1  UNL1        0.0720
     30 N         140.5738  141.8426  167.5699 N.3     1  UNL1       -0.2739
     31 C         140.5793  142.4087  166.1808 C.3     1  UNL1        0.0739
     32 C         141.2013  142.6105  168.6953 C.3     1  UNL1        0.0576
     33 C         140.3700  143.5504  169.5171 C.3     1  UNL1        0.0173
     34 C         142.6602  142.4385  168.9989 C.3     1  UNL1        0.0173
@<TRIPOS>BOND
     1    11    12    1
     2    12    13   ar
     3    13    14   ar
     4    14    15   ar
     5    15    16   ar
     6    16    17   ar
     7    17     1    1
     8     1     2   ar
     9     2     3   ar
    10     3     4   ar
    11     4     5   ar
    12     5    18    1
    13    18    19   ar
    14    19    20   ar
    15    20    21   ar
    16    21    22    1
    17    21    23   ar
    18    23    24   ar
    19     5     6   ar
    20     6     7   ar
    21     7     8   ar
    22     8     9    2
    23     8    10   ar
    24    10    25    1
    25    25    26    1
    26    26    27    1
    27    27    28    1
    28    28    29    1
    29    29    30    1
    30    30    32    1
    31    32    33    1
    32    32    34    1
    33    30    31    1
    34    17    12   ar
    35    10     1   ar
    36    31    26    1
    37     7     3   ar
    38    24    18   ar
@<TRIPOS>MOLECULE
*****
 34 38 0 0 0
SMALL
GASTEIGER

@<TRIPOS>ATOM
      1 C         141.3663  142.8319  162.3367 C.ar    1  UNL1        0.1458
      2 N         141.4292  142.6443  160.8498 N.ar    1  UNL1       -0.2249
      3 C         142.7583  142.5288  160.1640 C.ar    1  UNL1        0.1260
      4 C         143.1314  142.3400  158.7235 C.ar    1  UNL1        0.1212
      5 N         144.6280  142.2955  158.6343 N.ar    1  UNL1       -0.2265
      6 N         145.1800  142.4567  160.0198 N.ar    1  UNL1       -0.1586
      7 C         144.0244  142.6009  160.9652 C.ar    1  UNL1        0.1762
      8 C         143.9614  142.7886  162.4521 C.ar    1  UNL1        0.2829
      9 O         145.2275  142.8607  163.2532 O.2     1  UNL1       -0.2652
     10 N         142.6324  142.9041  163.1378 N.ar    1  UNL1       -0.2793
     11 C         140.0639  145.5173  162.6412 C.3     1  UNL1        0.0311
     12 C         139.3860  144.2901  163.1748 C.ar    1  UNL1       -0.0189
     13 C         138.0570  144.4056  163.8605 C.ar    1  UNL1       -0.0042
     14 C         137.3791  143.1785  164.3940 C.ar    1  UNL1       -0.0003
     15 C         138.0303  141.8358  164.2418 C.ar    1  UNL1        0.0001
     16 C         139.3594  141.7203  163.5560 C.ar    1  UNL1        0.0027
     17 C         140.0372  142.9475  163.0225 C.ar    1  UNL1        0.0303
     18 C         145.4317  142.1204  157.3800 C.ar    1  UNL1        0.0830
     19 C         146.8023  142.7213  157.2774 C.ar    1  UNL1        0.0200
     20 C         147.6060  142.5462  156.0230 C.ar    1  UNL1        0.0129
     21 C         147.0391  141.7703  154.8712 C.ar    1  UNL1        0.0578
     22 CL        147.8428  141.5953  153.6168 Cl      1  UNL1       -0.0822
     23 C         145.6685  141.1695  154.9737 C.ar    1  UNL1        0.0129
     24 C         144.8649  141.3446  156.2282 C.ar    1  UNL1        0.0200
     25 C         142.5695  143.0918  164.6247 C.3     1  UNL1        0.1119
     26 C         142.6265  141.9003  165.5341 C.3     1  UNL1        0.0388
     27 C         142.5064  140.5170  164.9665 C.3     1  UNL1        0.0048
     28 C         142.5635  139.3256  165.8759 C.3     1  UNL1        0.0174
     29 C         142.7406  139.5173  167.3531 C.3     1  UNL1        0.0720
     30 N         142.8606  140.9006  167.9208 N.3     1  UNL1       -0.2739
     31 C         142.8036  142.0920  167.0112 C.3     1  UNL1        0.0739
     32 C         143.0377  141.0923  169.3979 C.3     1  UNL1        0.0576
     33 C         143.7873  142.2841  169.9149 C.3     1  UNL1        0.0173
     34 C         142.4651  140.0920  170.3579 C.3     1  UNL1        0.0173
@<TRIPOS>BOND
     1    11    12    1
     2    12    13   ar
     3    13    14   ar
     4    14    15   ar
     5    15    16   ar
     6    16    17   ar
     7    17     1    1
     8     1     2   ar
     9     2     3   ar
    10     3     4   ar
    11     4     5   ar
    12     5    18    1
    13    18    19   ar
    14    19    20   ar
    15    20    21   ar
    16    21    22    1
    17    21    23   ar
    18    23    24   ar
    19     5     6   ar
    20     6     7   ar
    21     7     8   ar
    22     8     9    2
    23     8    10   ar
    24    10    25    1
    25    25    26    1
    26    26    27    1
    27    27    28    1
    28    28    29    1
    29    29    30    1
    30    30    32    1
    31    32    33    1
    32    32    34    1
    33    30    31    1
    34    17    12   ar
    35    10     1   ar
    36    31    26    1
    37     7     3   ar
    38    24    18   ar
