@<TRIPOS>MOLECULE
*****
 38 43 0 0 0
SMALL
GASTEIGER

@<TRIPOS>ATOM
      1 C         137.8375  142.9870  163.0096 C.3     1  UNL1        0.0932
      2 C         137.6421  141.8309  163.9453 C.3     1  UNL1        0.0286
      3 C         137.6621  140.4271  163.4173 C.3     1  UNL1        0.0193
      4 C         137.8773  140.1792  161.9537 C.3     1  UNL1        0.0700
      5 C         138.0726  141.3352  161.0180 C.3     1  UNL1        0.0193
      6 C         138.0527  142.7391  161.5460 C.3     1  UNL1        0.0286
      7 C         137.8744  140.9660  162.1963 C.3     1  UNL1        0.1562
      8 O         137.8563  142.2354  162.6737 O.3     1  UNL1       -0.3572
      9 N         137.8972  138.7754  161.4257 N.3     1  UNL1       -0.2926
     10 H         137.3208  138.7691  160.5842 H       1  UNL1        0.1236
     11 C         139.2012  138.1292  161.0623 C.3     1  UNL1        0.1152
     12 C         140.3933  138.2896  161.9585 C.ar    1  UNL1        0.0765
     13 C         140.5323  137.4333  163.1822 C.ar    1  UNL1        0.0193
     14 C         141.7243  137.5938  164.0784 C.ar    1  UNL1        0.0411
     15 C         142.7774  138.6105  163.7510 C.ar    1  UNL1        0.1708
     16 C         142.6384  139.4668  162.5273 C.ar    1  UNL1        0.1682
     17 N         141.4463  139.3064  161.6310 N.ar    1  UNL1       -0.2304
     18 N         143.6915  140.4836  162.1998 N.am    1  UNL1       -0.2639
     19 C         144.8836  140.6441  163.0960 C.2     1  UNL1        0.2718
     20 O         145.9366  141.6608  162.7686 O.2     1  UNL1       -0.2707
     21 C         145.0226  139.7877  164.3198 C.3     1  UNL1        0.2898
     22 O         143.9695  138.7710  164.6472 O.3     1  UNL1       -0.4628
     23 H         143.6003  141.0456  161.3967 H       1  UNL1        0.1565
     24 C         137.8175  144.3908  163.5376 C.3     1  UNL1        0.0320
     25 C         138.9091  144.8641  164.4512 C.3     1  UNL1        0.0327
     26 C         140.8749  142.0393  167.3505 C.ar    1  UNL1        0.2250
     27 C         142.2892  141.5948  167.1225 C.ar    1  UNL1        0.0593
     28 C         143.0483  142.0918  165.9280 C.ar    1  UNL1        0.0254
     29 C         142.3930  143.0334  164.9616 C.ar    1  UNL1        0.0990
     30 N         143.1521  143.5305  163.7671 N.ar    1  UNL1       -0.2400
     31 C         142.4968  144.4720  162.8007 C.ar    1  UNL1        0.1281
     32 C         141.0824  144.9166  163.0287 C.ar    1  UNL1        0.1566
     33 F         140.4272  145.8582  162.0623 F       1  UNL1       -0.2028
     34 C         140.3234  144.4196  164.2232 C.ar    1  UNL1        0.0261
     35 C         140.9787  143.4779  165.1896 C.ar    1  UNL1        0.1002
     36 N         140.2196  142.9809  166.3841 N.ar    1  UNL1       -0.2104
     37 C         139.5234  140.1643  168.5369 C.3     1  UNL1        0.2542
     38 O         140.1158  141.5422  168.5450 O.3     1  UNL1       -0.4561
@<TRIPOS>BOND
     1    37    38    1
     2    38    26    1
     3    26    27   ar
     4    27    28   ar
     5    28    29   ar
     6    29    30   ar
     7    30    31   ar
     8    31    32   ar
     9    32    33    1
    10    32    34   ar
    11    34    25    1
    12    25    24    1
    13    24     1    1
    14     1     2    1
    15     2     3    1
    16     3     4    1
    17     4     9    1
    18     9    11    1
    19    11    12    1
    20    12    13   ar
    21    13    14   ar
    22    14    15   ar
    23    15    16   ar
    24    16    17   ar
    25    16    18    1
    26    18    19   am
    27    19    20    2
    28    19    21    1
    29    21    22    1
    30     4     5    1
    31     5     6    1
    32     4     7    1
    33     7     8    1
    34    34    35   ar
    35    35    36   ar
    36    36    26   ar
    37    35    29   ar
    38     6     1    1
    39     8     1    1
    40    17    12   ar
    41    22    15    1
    42     9    10    1
    43    18    23    1
@<TRIPOS>MOLECULE
*****
 38 43 0 0 0
SMALL
GASTEIGER

@<TRIPOS>ATOM
      1 C         141.9491  138.0849  164.1525 C.3     1  UNL1        0.0932
      2 C         142.2569  138.3950  162.7175 C.3     1  UNL1        0.0286
      3 C         143.4723  139.2019  162.3686 C.3     1  UNL1        0.0193
      4 C         144.3798  139.6988  163.4547 C.3     1  UNL1        0.0700
      5 C         144.0720  139.3888  164.8896 C.3     1  UNL1        0.0193
      6 C         142.8566  138.5818  165.2385 C.3     1  UNL1        0.0286
      7 C         143.7256  139.2603  163.6948 C.3     1  UNL1        0.1562
      8 O         142.6267  138.5307  164.0103 O.3     1  UNL1       -0.3572
      9 N         145.5952  140.5058  163.1057 N.3     1  UNL1       -0.2926
     10 H         145.6974  140.4608  162.0919 H       1  UNL1        0.1236
     11 C         145.6670  141.9554  163.4843 C.3     1  UNL1        0.1152
     12 C         144.4729  142.8418  163.2883 C.ar    1  UNL1        0.0765
     13 C         143.8087  143.4782  164.4732 C.ar    1  UNL1        0.0193
     14 C         142.6146  144.3646  164.2772 C.ar    1  UNL1        0.0411
     15 C         142.0847  144.6146  162.8964 C.ar    1  UNL1        0.1708
     16 C         142.7488  143.9783  161.7116 C.ar    1  UNL1        0.1682
     17 N         143.9430  143.0918  161.9075 N.ar    1  UNL1       -0.2304
     18 N         142.2189  144.2283  160.3308 N.am    1  UNL1       -0.2639
     19 C         141.0248  145.1147  160.1348 C.2     1  UNL1        0.2718
     20 O         140.4949  145.3647  158.7540 O.2     1  UNL1       -0.2707
     21 C         140.3606  145.7511  161.3197 C.3     1  UNL1        0.2898
     22 O         140.8905  145.5011  162.7005 O.3     1  UNL1       -0.4628
     23 H         142.6548  143.8106  159.5531 H       1  UNL1        0.1565
     24 C         140.7338  137.2780  164.5014 C.3     1  UNL1        0.0320
     25 C         139.4838  137.9664  164.9638 C.3     1  UNL1        0.0327
     26 C         140.2348  142.0449  166.7106 C.ar    1  UNL1        0.2250
     27 C         139.7444  143.2689  165.9956 C.ar    1  UNL1        0.0593
     28 C         139.0035  143.1334  164.6984 C.ar    1  UNL1        0.0254
     29 C         138.7532  141.7739  164.1161 C.ar    1  UNL1        0.0990
     30 N         138.0124  141.6384  162.8189 N.ar    1  UNL1       -0.2400
     31 C         137.7620  140.2789  162.2366 C.ar    1  UNL1        0.1281
     32 C         138.2525  139.0549  162.9516 C.ar    1  UNL1        0.1566
     33 F         138.0022  137.6954  162.3694 F       1  UNL1       -0.2028
     34 C         138.9933  139.1903  164.2489 C.ar    1  UNL1        0.0261
     35 C         139.2437  140.5499  164.8311 C.ar    1  UNL1        0.1002
     36 N         139.9845  140.6854  166.1283 N.ar    1  UNL1       -0.2104
     37 C         140.5110  143.1673  169.0374 C.3     1  UNL1        0.2542
     38 O         140.9757  142.1804  168.0078 O.3     1  UNL1       -0.4561
@<TRIPOS>BOND
     1    37    38    1
     2    38    26    1
     3    26    27   ar
     4    27    28   ar
     5    28    29   ar
     6    29    30   ar
     7    30    31   ar
     8    31    32   ar
     9    32    33    1
    10    32    34   ar
    11    34    25    1
    12    25    24    1
    13    24     1    1
    14     1     2    1
    15     2     3    1
    16     3     4    1
    17     4     9    1
    18     9    11    1
    19    11    12    1
    20    12    13   ar
    21    13    14   ar
    22    14    15   ar
    23    15    16   ar
    24    16    17   ar
    25    16    18    1
    26    18    19   am
    27    19    20    2
    28    19    21    1
    29    21    22    1
    30     4     5    1
    31     5     6    1
    32     4     7    1
    33     7     8    1
    34    34    35   ar
    35    35    36   ar
    36    36    26   ar
    37    35    29   ar
    38     6     1    1
    39     8     1    1
    40    17    12   ar
    41    22    15    1
    42     9    10    1
    43    18    23    1
@<TRIPOS>MOLECULE
*****
 38 43 0 0 0
SMALL
GASTEIGER

@<TRIPOS>ATOM
      1 C         142.6269  144.3721  163.3654 C.3     1  UNL1        0.0932
      2 C         142.5091  143.8523  161.9633 C.3     1  UNL1        0.0286
      3 C         141.1556  143.6594  161.3462 C.3     1  UNL1        0.0193
      4 C         139.9199  143.9861  162.1312 C.3     1  UNL1        0.0700
      5 C         140.0376  144.5059  163.5333 C.3     1  UNL1        0.0193
      6 C         141.3912  144.6989  164.1504 C.3     1  UNL1        0.0286
      7 C         140.6397  144.1083  162.5118 C.3     1  UNL1        0.1562
      8 O         141.8635  144.2828  163.0698 O.3     1  UNL1       -0.3572
      9 N         138.5664  143.7932  161.5141 N.3     1  UNL1       -0.2926
     10 H         138.4861  144.4764  160.7610 H       1  UNL1        0.1236
     11 C         138.1897  142.4624  160.9334 C.3     1  UNL1        0.1152
     12 C         138.3826  141.2113  161.7381 C.ar    1  UNL1        0.0765
     13 C         138.9281  139.9760  161.0849 C.ar    1  UNL1        0.0193
     14 C         139.1210  138.7250  161.8895 C.ar    1  UNL1        0.0411
     15 C         138.7683  138.7091  163.3474 C.ar    1  UNL1        0.1708
     16 C         138.2228  139.9442  164.0006 C.ar    1  UNL1        0.1682
     17 N         138.0299  141.1954  163.1959 N.ar    1  UNL1       -0.2304
     18 N         137.8701  139.9283  165.4585 N.am    1  UNL1       -0.2639
     19 C         138.0630  138.6772  166.2631 C.2     1  UNL1        0.2718
     20 O         137.7103  138.6613  167.7210 O.2     1  UNL1       -0.2707
     21 C         138.6085  137.4420  165.6100 C.3     1  UNL1        0.2898
     22 O         138.9612  137.4579  164.1521 O.3     1  UNL1       -0.4628
     23 H         137.5121  140.7390  165.8872 H       1  UNL1        0.1565
     24 C         143.9803  144.5651  163.9825 C.3     1  UNL1        0.0320
     25 C         144.4276  143.6739  165.1032 C.3     1  UNL1        0.0327
     26 C         141.2108  141.7193  167.5692 C.ar    1  UNL1        0.2250
     27 C         140.9945  140.2376  167.4812 C.ar    1  UNL1        0.0593
     28 C         141.8505  139.4074  166.5711 C.ar    1  UNL1        0.0254
     29 C         142.9227  140.0590  165.7491 C.ar    1  UNL1        0.0990
     30 N         143.7787  139.2288  164.8391 N.ar    1  UNL1       -0.2400
     31 C         144.8510  139.8803  164.0171 C.ar    1  UNL1        0.1281
     32 C         145.0673  141.3621  164.1051 C.ar    1  UNL1        0.1566
     33 F         146.1396  142.0136  163.2831 F       1  UNL1       -0.2028
     34 C         144.2113  142.1922  165.0151 C.ar    1  UNL1        0.0261
     35 C         143.1390  141.5406  165.8372 C.ar    1  UNL1        0.1002
     36 N         142.2831  142.3708  166.7472 N.ar    1  UNL1       -0.2104
     37 C         140.2496  142.2009  169.9344 C.3     1  UNL1        0.2542
     38 O         140.3549  142.5494  168.4793 O.3     1  UNL1       -0.4561
@<TRIPOS>BOND
     1    37    38    1
     2    38    26    1
     3    26    27   ar
     4    27    28   ar
     5    28    29   ar
     6    29    30   ar
     7    30    31   ar
     8    31    32   ar
     9    32    33    1
    10    32    34   ar
    11    34    25    1
    12    25    24    1
    13    24     1    1
    14     1     2    1
    15     2     3    1
    16     3     4    1
    17     4     9    1
    18     9    11    1
    19    11    12    1
    20    12    13   ar
    21    13    14   ar
    22    14    15   ar
    23    15    16   ar
    24    16    17   ar
    25    16    18    1
    26    18    19   am
    27    19    20    2
    28    19    21    1
    29    21    22    1
    30     4     5    1
    31     5     6    1
    32     4     7    1
    33     7     8    1
    34    34    35   ar
    35    35    36   ar
    36    36    26   ar
    37    35    29   ar
    38     6     1    1
    39     8     1    1
    40    17    12   ar
    41    22    15    1
    42     9    10    1
    43    18    23    1
@<TRIPOS>MOLECULE
*****
 38 43 0 0 0
SMALL
GASTEIGER

@<TRIPOS>ATOM
      1 C         137.9041  142.7081  163.8362 C.3     1  UNL1        0.0932
      2 C         137.7479  142.5709  162.3507 C.3     1  UNL1        0.0286
      3 C         137.7405  141.2100  161.7199 C.3     1  UNL1        0.0193
      4 C         137.8893  139.9863  162.5747 C.3     1  UNL1        0.0700
      5 C         138.0455  140.1236  164.0602 C.3     1  UNL1        0.0193
      6 C         138.0529  141.4846  164.6910 C.3     1  UNL1        0.0286
      7 C         137.8992  140.7108  162.9657 C.3     1  UNL1        0.1562
      8 O         137.9059  141.9414  163.5361 O.3     1  UNL1       -0.3572
      9 N         137.8819  138.6254  161.9439 N.3     1  UNL1       -0.2926
     10 H         137.1363  138.6276  161.2478 H       1  UNL1        0.1236
     11 C         139.1125  138.1096  161.2588 C.3     1  UNL1        0.1152
     12 C         140.4666  138.3822  161.8438 C.ar    1  UNL1        0.0765
     13 C         141.5574  138.9435  160.9806 C.ar    1  UNL1        0.0193
     14 C         142.9114  139.2161  161.5655 C.ar    1  UNL1        0.0411
     15 C         143.1747  138.9273  163.0137 C.ar    1  UNL1        0.1708
     16 C         142.0840  138.3660  163.8770 C.ar    1  UNL1        0.1682
     17 N         140.7299  138.0934  163.2920 N.ar    1  UNL1       -0.2304
     18 N         142.3473  138.0773  165.3252 N.am    1  UNL1       -0.2639
     19 C         143.7014  138.3498  165.9101 C.2     1  UNL1        0.2718
     20 O         143.9647  138.0611  167.3583 O.2     1  UNL1       -0.2707
     21 C         144.7922  138.9112  165.0469 C.3     1  UNL1        0.2898
     22 O         144.5289  139.1999  163.5987 O.3     1  UNL1       -0.4628
     23 H         141.6314  137.7088  165.8917 H       1  UNL1        0.1565
     24 C         137.9115  144.0690  164.4670 C.3     1  UNL1        0.0320
     25 C         139.2114  144.7799  164.7016 C.3     1  UNL1        0.0327
     26 C         142.9837  142.5407  165.7046 C.ar    1  UNL1        0.2250
     27 C         144.0870  142.4394  164.6935 C.ar    1  UNL1        0.0593
     28 C         143.9330  143.0845  163.3481 C.ar    1  UNL1        0.0254
     29 C         142.6756  143.8309  163.0137 C.ar    1  UNL1        0.0990
     30 N         142.5215  144.4759  161.6683 N.ar    1  UNL1       -0.2400
     31 C         141.2641  145.2223  161.3340 C.ar    1  UNL1        0.1281
     32 C         140.1607  145.3237  162.3451 C.ar    1  UNL1        0.1566
     33 F         138.9033  146.0700  162.0107 F       1  UNL1       -0.2028
     34 C         140.3147  144.6786  163.6905 C.ar    1  UNL1        0.0261
     35 C         141.5722  143.9322  164.0248 C.ar    1  UNL1        0.1002
     36 N         141.7263  143.2871  165.3702 N.ar    1  UNL1       -0.2104
     37 C         142.1194  142.1456  168.1226 C.3     1  UNL1        0.2542
     38 O         143.1377  141.8957  167.0500 O.3     1  UNL1       -0.4561
@<TRIPOS>BOND
     1    37    38    1
     2    38    26    1
     3    26    27   ar
     4    27    28   ar
     5    28    29   ar
     6    29    30   ar
     7    30    31   ar
     8    31    32   ar
     9    32    33    1
    10    32    34   ar
    11    34    25    1
    12    25    24    1
    13    24     1    1
    14     1     2    1
    15     2     3    1
    16     3     4    1
    17     4     9    1
    18     9    11    1
    19    11    12    1
    20    12    13   ar
    21    13    14   ar
    22    14    15   ar
    23    15    16   ar
    24    16    17   ar
    25    16    18    1
    26    18    19   am
    27    19    20    2
    28    19    21    1
    29    21    22    1
    30     4     5    1
    31     5     6    1
    32     4     7    1
    33     7     8    1
    34    34    35   ar
    35    35    36   ar
    36    36    26   ar
    37    35    29   ar
    38     6     1    1
    39     8     1    1
    40    17    12   ar
    41    22    15    1
    42     9    10    1
    43    18    23    1
@<TRIPOS>MOLECULE
*****
 38 43 0 0 0
SMALL
GASTEIGER

@<TRIPOS>ATOM
      1 C         140.8439  144.8677  163.1253 C.3     1  UNL1        0.0932
      2 C         141.0324  144.3006  161.7495 C.3     1  UNL1        0.0286
      3 C         142.3954  143.8678  161.2969 C.3     1  UNL1        0.0193
      4 C         143.5700  144.0022  162.2201 C.3     1  UNL1        0.0700
      5 C         143.3816  144.5693  163.5959 C.3     1  UNL1        0.0193
      6 C         142.0185  145.0021  164.0485 C.3     1  UNL1        0.0286
      7 C         142.8424  144.2529  162.5127 C.3     1  UNL1        0.1562
      8 O         141.6099  144.6443  162.9220 O.3     1  UNL1       -0.3572
      9 N         144.9330  143.5694  161.7675 N.3     1  UNL1       -0.2926
     10 H         145.5960  143.9070  162.4652 H       1  UNL1        0.1236
     11 C         145.2271  142.1132  161.5598 C.3     1  UNL1        0.1152
     12 C         144.5569  141.0827  162.4193 C.ar    1  UNL1        0.0765
     13 C         145.2100  140.6265  163.6904 C.ar    1  UNL1        0.0193
     14 C         144.5399  139.5960  164.5500 C.ar    1  UNL1        0.0411
     15 C         143.2167  139.0216  164.1386 C.ar    1  UNL1        0.1708
     16 C         142.5636  139.4778  162.8677 C.ar    1  UNL1        0.1682
     17 N         143.2337  140.5083  162.0080 N.ar    1  UNL1       -0.2304
     18 N         141.2404  138.9034  162.4563 N.am    1  UNL1       -0.2639
     19 C         140.5703  137.8728  163.3159 C.2     1  UNL1        0.2718
     20 O         139.2471  137.2984  162.9045 O.2     1  UNL1       -0.2707
     21 C         141.2234  137.4167  164.5869 C.3     1  UNL1        0.2898
     22 O         142.5466  137.9911  164.9983 O.3     1  UNL1       -0.4628
     23 H         140.8118  139.2027  161.6221 H       1  UNL1        0.1565
     24 C         139.4810  145.3005  163.5779 C.3     1  UNL1        0.0320
     25 C         138.8169  144.6048  164.7291 C.3     1  UNL1        0.0327
     26 C         140.9652  142.1916  167.8613 C.ar    1  UNL1        0.2250
     27 C         140.8479  140.6962  167.8671 C.ar    1  UNL1        0.0593
     28 C         140.0145  140.0052  166.8289 C.ar    1  UNL1        0.0254
     29 C         139.2984  140.8096  165.7848 C.ar    1  UNL1        0.0990
     30 N         138.4650  140.1186  164.7466 N.ar    1  UNL1       -0.2400
     31 C         137.7489  140.9230  163.7025 C.ar    1  UNL1        0.1281
     32 C         137.8662  142.4184  163.6966 C.ar    1  UNL1        0.1566
     33 F         137.1501  143.2228  162.6526 F       1  UNL1       -0.2028
     34 C         138.6996  143.1094  164.7349 C.ar    1  UNL1        0.0261
     35 C         139.4157  142.3049  165.7790 C.ar    1  UNL1        0.1002
     36 N         140.2491  142.9959  166.8172 N.ar    1  UNL1       -0.2104
     37 C         143.0871  142.2668  169.3587 C.3     1  UNL1        0.2542
     38 O         141.7986  142.8825  168.8995 O.3     1  UNL1       -0.4561
@<TRIPOS>BOND
     1    37    38    1
     2    38    26    1
     3    26    27   ar
     4    27    28   ar
     5    28    29   ar
     6    29    30   ar
     7    30    31   ar
     8    31    32   ar
     9    32    33    1
    10    32    34   ar
    11    34    25    1
    12    25    24    1
    13    24     1    1
    14     1     2    1
    15     2     3    1
    16     3     4    1
    17     4     9    1
    18     9    11    1
    19    11    12    1
    20    12    13   ar
    21    13    14   ar
    22    14    15   ar
    23    15    16   ar
    24    16    17   ar
    25    16    18    1
    26    18    19   am
    27    19    20    2
    28    19    21    1
    29    21    22    1
    30     4     5    1
    31     5     6    1
    32     4     7    1
    33     7     8    1
    34    34    35   ar
    35    35    36   ar
    36    36    26   ar
    37    35    29   ar
    38     6     1    1
    39     8     1    1
    40    17    12   ar
    41    22    15    1
    42     9    10    1
    43    18    23    1
@<TRIPOS>MOLECULE
*****
 38 43 0 0 0
SMALL
GASTEIGER

@<TRIPOS>ATOM
      1 C         141.8713  138.1405  164.2580 C.3     1  UNL1        0.0932
      2 C         142.9047  138.5393  165.2696 C.3     1  UNL1        0.0286
      3 C         144.1122  139.3190  164.8408 C.3     1  UNL1        0.0193
      4 C         144.2864  139.7001  163.4005 C.3     1  UNL1        0.0700
      5 C         143.2530  139.3014  162.3889 C.3     1  UNL1        0.0193
      6 C         142.0455  138.5216  162.8177 C.3     1  UNL1        0.0286
      7 C         143.6081  139.2726  163.5878 C.3     1  UNL1        0.1562
      8 O         142.5163  138.5674  163.9754 O.3     1  UNL1       -0.3572
      9 N         145.4939  140.4799  162.9718 N.3     1  UNL1       -0.2926
     10 H         145.5715  140.3702  161.9606 H       1  UNL1        0.1236
     11 C         145.5766  141.9505  163.2554 C.3     1  UNL1        0.1152
     12 C         144.3529  142.8087  163.1291 C.ar    1  UNL1        0.0765
     13 C         143.6369  143.2799  164.3602 C.ar    1  UNL1        0.0193
     14 C         142.4132  144.1380  164.2338 C.ar    1  UNL1        0.0411
     15 C         141.9053  144.5251  162.8765 C.ar    1  UNL1        0.1708
     16 C         142.6212  144.0539  161.6455 C.ar    1  UNL1        0.1682
     17 N         143.8450  143.1957  161.7718 N.ar    1  UNL1       -0.2304
     18 N         142.1134  144.4409  160.2882 N.am    1  UNL1       -0.2639
     19 C         140.8897  145.2991  160.1619 C.2     1  UNL1        0.2718
     20 O         140.3819  145.6861  158.8045 O.2     1  UNL1       -0.2707
     21 C         140.1737  145.7703  161.3929 C.3     1  UNL1        0.2898
     22 O         140.6815  145.3833  162.7503 O.3     1  UNL1       -0.4628
     23 H         142.5833  144.1317  159.4802 H       1  UNL1        0.1565
     24 C         140.6638  137.3608  164.6867 C.3     1  UNL1        0.0320
     25 C         139.3800  138.0740  164.9922 C.3     1  UNL1        0.0327
     26 C         138.0394  140.5223  161.4626 C.ar    1  UNL1        0.2250
     27 C         138.0163  142.0194  161.5536 C.ar    1  UNL1        0.0593
     28 C         138.4402  142.7003  162.8212 C.ar    1  UNL1        0.0254
     29 C         138.8871  141.8842  163.9977 C.ar    1  UNL1        0.0990
     30 N         139.3110  142.5651  165.2652 N.ar    1  UNL1       -0.2400
     31 C         139.7579  141.7490  166.4418 C.ar    1  UNL1        0.1281
     32 C         139.7809  140.2519  166.3508 C.ar    1  UNL1        0.1566
     33 F         140.2278  139.4358  167.5273 F       1  UNL1       -0.2028
     34 C         139.3570  139.5710  165.0832 C.ar    1  UNL1        0.0261
     35 C         138.9101  140.3872  163.9067 C.ar    1  UNL1        0.1002
     36 N         138.4862  139.7062  162.6391 N.ar    1  UNL1       -0.2104
     37 C         137.9180  140.4715  158.8679 C.3     1  UNL1        0.2542
     38 O         137.6155  139.8414  160.1951 O.3     1  UNL1       -0.4561
@<TRIPOS>BOND
     1    37    38    1
     2    38    26    1
     3    26    27   ar
     4    27    28   ar
     5    28    29   ar
     6    29    30   ar
     7    30    31   ar
     8    31    32   ar
     9    32    33    1
    10    32    34   ar
    11    34    25    1
    12    25    24    1
    13    24     1    1
    14     1     2    1
    15     2     3    1
    16     3     4    1
    17     4     9    1
    18     9    11    1
    19    11    12    1
    20    12    13   ar
    21    13    14   ar
    22    14    15   ar
    23    15    16   ar
    24    16    17   ar
    25    16    18    1
    26    18    19   am
    27    19    20    2
    28    19    21    1
    29    21    22    1
    30     4     5    1
    31     5     6    1
    32     4     7    1
    33     7     8    1
    34    34    35   ar
    35    35    36   ar
    36    36    26   ar
    37    35    29   ar
    38     6     1    1
    39     8     1    1
    40    17    12   ar
    41    22    15    1
    42     9    10    1
    43    18    23    1
@<TRIPOS>MOLECULE
*****
 38 43 0 0 0
SMALL
GASTEIGER

@<TRIPOS>ATOM
      1 C         137.9742  143.0757  163.0814 C.3     1  UNL1        0.0932
      2 C         138.0225  142.7063  161.6284 C.3     1  UNL1        0.0286
      3 C         137.9032  141.2692  161.2155 C.3     1  UNL1        0.0193
      4 C         137.7356  140.2015  162.2557 C.3     1  UNL1        0.0700
      5 C         137.6873  140.5709  163.7087 C.3     1  UNL1        0.0193
      6 C         137.8067  142.0081  164.1215 C.3     1  UNL1        0.0286
      7 C         137.7968  140.9753  162.5303 C.3     1  UNL1        0.1562
      8 O         137.9047  142.2747  162.9036 O.3     1  UNL1       -0.3572
      9 N         137.6163  138.7644  161.8429 N.3     1  UNL1       -0.2926
     10 H         136.9767  138.7383  161.0487 H       1  UNL1        0.1236
     11 C         138.8396  137.9960  161.4391 C.3     1  UNL1        0.1152
     12 C         140.1845  138.3933  161.9713 C.ar    1  UNL1        0.0765
     13 C         141.1044  139.2321  161.1344 C.ar    1  UNL1        0.0193
     14 C         142.4493  139.6294  161.6667 C.ar    1  UNL1        0.0411
     15 C         142.8744  139.1880  163.0358 C.ar    1  UNL1        0.1708
     16 C         141.9546  138.3493  163.8727 C.ar    1  UNL1        0.1682
     17 N         140.6096  137.9519  163.3404 N.ar    1  UNL1       -0.2304
     18 N         142.3796  137.9079  165.2418 N.am    1  UNL1       -0.2639
     19 C         143.7245  138.3053  165.7740 C.2     1  UNL1        0.2718
     20 O         144.1496  137.8639  167.1432 O.2     1  UNL1       -0.2707
     21 C         144.6444  139.1440  164.9371 C.3     1  UNL1        0.2898
     22 O         144.2194  139.5854  163.5680 O.3     1  UNL1       -0.4628
     23 H         141.7759  137.3574  165.7911 H       1  UNL1        0.1565
     24 C         138.0936  144.5128  163.4942 C.3     1  UNL1        0.0320
     25 C         139.1647  144.9299  164.4580 C.3     1  UNL1        0.0327
     26 C         141.0848  142.0708  167.3543 C.ar    1  UNL1        0.2250
     27 C         142.5009  141.6249  167.1407 C.ar    1  UNL1        0.0593
     28 C         143.2771  142.1321  165.9616 C.ar    1  UNL1        0.0254
     29 C         142.6371  143.0852  164.9961 C.ar    1  UNL1        0.0990
     30 N         143.4132  143.5924  163.8170 N.ar    1  UNL1       -0.2400
     31 C         142.7732  144.5454  162.8516 C.ar    1  UNL1        0.1281
     32 C         141.3570  144.9913  163.0652 C.ar    1  UNL1        0.1566
     33 F         140.7170  145.9443  162.0998 F       1  UNL1       -0.2028
     34 C         140.5809  144.4841  164.2443 C.ar    1  UNL1        0.0261
     35 C         141.2209  143.5310  165.2098 C.ar    1  UNL1        0.1002
     36 N         140.4448  143.0238  166.3889 N.ar    1  UNL1       -0.2104
     37 C         139.9013  140.1214  168.5991 C.3     1  UNL1        0.2542
     38 O         140.3086  141.5635  168.5335 O.3     1  UNL1       -0.4561
@<TRIPOS>BOND
     1    37    38    1
     2    38    26    1
     3    26    27   ar
     4    27    28   ar
     5    28    29   ar
     6    29    30   ar
     7    30    31   ar
     8    31    32   ar
     9    32    33    1
    10    32    34   ar
    11    34    25    1
    12    25    24    1
    13    24     1    1
    14     1     2    1
    15     2     3    1
    16     3     4    1
    17     4     9    1
    18     9    11    1
    19    11    12    1
    20    12    13   ar
    21    13    14   ar
    22    14    15   ar
    23    15    16   ar
    24    16    17   ar
    25    16    18    1
    26    18    19   am
    27    19    20    2
    28    19    21    1
    29    21    22    1
    30     4     5    1
    31     5     6    1
    32     4     7    1
    33     7     8    1
    34    34    35   ar
    35    35    36   ar
    36    36    26   ar
    37    35    29   ar
    38     6     1    1
    39     8     1    1
    40    17    12   ar
    41    22    15    1
    42     9    10    1
    43    18    23    1
@<TRIPOS>MOLECULE
*****
 38 43 0 0 0
SMALL
GASTEIGER

@<TRIPOS>ATOM
      1 C         143.1177  138.6902  163.0749 C.3     1  UNL1        0.0932
      2 C         142.7276  138.9576  161.6514 C.3     1  UNL1        0.0286
      3 C         141.3677  138.5602  161.1590 C.3     1  UNL1        0.0193
      4 C         140.3976  137.8953  162.0902 C.3     1  UNL1        0.0700
      5 C         140.7877  137.6278  163.5137 C.3     1  UNL1        0.0193
      6 C         142.1477  138.0253  164.0061 C.3     1  UNL1        0.0286
      7 C         141.1315  138.0949  162.4057 C.3     1  UNL1        0.1562
      8 O         142.3612  138.4543  162.8509 O.3     1  UNL1       -0.3572
      9 N         139.0377  137.4978  161.5979 N.3     1  UNL1       -0.2926
     10 H         138.8206  136.5981  162.0266 H       1  UNL1        0.1236
     11 C         137.8591  138.3916  161.8468 C.3     1  UNL1        0.1152
     12 C         138.0324  139.8815  161.8368 C.ar    1  UNL1        0.0765
     13 C         138.2285  140.6051  160.5375 C.ar    1  UNL1        0.0193
     14 C         138.4018  142.0950  160.5275 C.ar    1  UNL1        0.0411
     15 C         138.3790  142.8614  161.8167 C.ar    1  UNL1        0.1708
     16 C         138.1828  142.1380  163.1159 C.ar    1  UNL1        0.1682
     17 N         138.0095  140.6480  163.1260 N.ar    1  UNL1       -0.2304
     18 N         138.1600  142.9044  164.4051 N.am    1  UNL1       -0.2639
     19 C         138.3332  144.3943  164.3951 C.2     1  UNL1        0.2718
     20 O         138.3104  145.1607  165.6843 O.2     1  UNL1       -0.2707
     21 C         138.5294  145.1178  163.0958 C.3     1  UNL1        0.2898
     22 O         138.5523  144.3514  161.8066 O.3     1  UNL1       -0.4628
     23 H         138.0312  142.4295  165.2579 H       1  UNL1        0.1565
     24 C         144.4776  139.0877  163.5672 C.3     1  UNL1        0.0320
     25 C         144.6408  140.3199  164.4070 C.3     1  UNL1        0.0327
     26 C         141.9523  140.4335  168.0139 C.ar    1  UNL1        0.2250
     27 C         140.8434  141.4405  168.0913 C.ar    1  UNL1        0.0593
     28 C         140.6306  142.4097  166.9664 C.ar    1  UNL1        0.0254
     29 C         141.5267  142.3719  165.7641 C.ar    1  UNL1        0.0990
     30 N         141.3139  143.3411  164.6393 N.ar    1  UNL1       -0.2400
     31 C         142.2100  143.3033  163.4370 C.ar    1  UNL1        0.1281
     32 C         143.3190  142.2961  163.3596 C.ar    1  UNL1        0.1566
     33 F         144.2151  142.2583  162.1573 F       1  UNL1       -0.2028
     34 C         143.5318  141.3269  164.4844 C.ar    1  UNL1        0.0261
     35 C         142.6356  141.3648  165.6867 C.ar    1  UNL1        0.1002
     36 N         142.8485  140.3956  166.8116 N.ar    1  UNL1       -0.2104
     37 C         142.7926  139.9281  170.4198 C.3     1  UNL1        0.2542
     38 O         142.1652  139.4642  169.1387 O.3     1  UNL1       -0.4561
@<TRIPOS>BOND
     1    37    38    1
     2    38    26    1
     3    26    27   ar
     4    27    28   ar
     5    28    29   ar
     6    29    30   ar
     7    30    31   ar
     8    31    32   ar
     9    32    33    1
    10    32    34   ar
    11    34    25    1
    12    25    24    1
    13    24     1    1
    14     1     2    1
    15     2     3    1
    16     3     4    1
    17     4     9    1
    18     9    11    1
    19    11    12    1
    20    12    13   ar
    21    13    14   ar
    22    14    15   ar
    23    15    16   ar
    24    16    17   ar
    25    16    18    1
    26    18    19   am
    27    19    20    2
    28    19    21    1
    29    21    22    1
    30     4     5    1
    31     5     6    1
    32     4     7    1
    33     7     8    1
    34    34    35   ar
    35    35    36   ar
    36    36    26   ar
    37    35    29   ar
    38     6     1    1
    39     8     1    1
    40    17    12   ar
    41    22    15    1
    42     9    10    1
    43    18    23    1
@<TRIPOS>MOLECULE
*****
 38 43 0 0 0
SMALL
GASTEIGER

@<TRIPOS>ATOM
      1 C         139.4878  137.8933  164.3690 C.3     1  UNL1        0.0932
      2 C         139.0745  138.0302  162.9336 C.3     1  UNL1        0.0286
      3 C         140.0963  137.9001  161.8432 C.3     1  UNL1        0.0193
      4 C         141.5315  137.6332  162.1883 C.3     1  UNL1        0.0700
      5 C         141.9449  137.4963  163.6237 C.3     1  UNL1        0.0193
      6 C         140.9230  137.6263  164.7141 C.3     1  UNL1        0.0286
      7 C         141.0076  137.6966  162.8202 C.3     1  UNL1        0.1562
      8 O         140.0836  137.8142  163.8062 O.3     1  UNL1       -0.3572
      9 N         142.5533  137.5031  161.0979 N.3     1  UNL1       -0.2926
     10 H         142.1505  136.8911  160.3883 H       1  UNL1        0.1236
     11 C         143.0486  138.7261  160.3844 C.3     1  UNL1        0.1152
     12 C         143.2645  140.0015  161.1437 C.ar    1  UNL1        0.0765
     13 C         144.4727  140.1580  162.0189 C.ar    1  UNL1        0.0193
     14 C         144.6886  141.4335  162.7782 C.ar    1  UNL1        0.0411
     15 C         143.6964  142.5525  162.6623 C.ar    1  UNL1        0.1708
     16 C         142.4883  142.3960  161.7872 C.ar    1  UNL1        0.1682
     17 N         142.2723  141.1205  161.0278 N.ar    1  UNL1       -0.2304
     18 N         141.4962  143.5150  161.6713 N.am    1  UNL1       -0.2639
     19 C         141.7121  144.7905  162.4306 C.2     1  UNL1        0.2718
     20 O         140.7199  145.9095  162.3147 O.2     1  UNL1       -0.2707
     21 C         142.9202  144.9470  163.3058 C.3     1  UNL1        0.2898
     22 O         143.9124  143.8280  163.4217 O.3     1  UNL1       -0.4628
     23 H         140.7032  143.4124  161.0968 H       1  UNL1        0.1565
     24 C         138.4660  138.0233  165.4594 C.3     1  UNL1        0.0320
     25 C         138.3549  139.3028  166.2345 C.3     1  UNL1        0.0327
     26 C         142.3037  140.6710  167.9033 C.ar    1  UNL1        0.2250
     27 C         142.9454  141.9222  167.3813 C.ar    1  UNL1        0.0593
     28 C         142.2709  142.7174  166.3030 C.ar    1  UNL1        0.0254
     29 C         140.9547  142.2613  165.7467 C.ar    1  UNL1        0.0990
     30 N         140.2802  143.0565  164.6684 N.ar    1  UNL1       -0.2400
     31 C         138.9639  142.6005  164.1122 C.ar    1  UNL1        0.1281
     32 C         138.3221  141.3492  164.6342 C.ar    1  UNL1        0.1566
     33 F         137.0059  140.8932  164.0779 F       1  UNL1       -0.2028
     34 C         138.9966  140.5540  165.7125 C.ar    1  UNL1        0.0261
     35 C         140.3130  141.0101  166.2687 C.ar    1  UNL1        0.1002
     36 N         140.9875  140.2149  167.3470 N.ar    1  UNL1       -0.2104
     37 C         142.1552  139.1339  169.9926 C.3     1  UNL1        0.2542
     38 O         142.9782  139.8758  168.9816 O.3     1  UNL1       -0.4561
@<TRIPOS>BOND
     1    37    38    1
     2    38    26    1
     3    26    27   ar
     4    27    28   ar
     5    28    29   ar
     6    29    30   ar
     7    30    31   ar
     8    31    32   ar
     9    32    33    1
    10    32    34   ar
    11    34    25    1
    12    25    24    1
    13    24     1    1
    14     1     2    1
    15     2     3    1
    16     3     4    1
    17     4     9    1
    18     9    11    1
    19    11    12    1
    20    12    13   ar
    21    13    14   ar
    22    14    15   ar
    23    15    16   ar
    24    16    17   ar
    25    16    18    1
    26    18    19   am
    27    19    20    2
    28    19    21    1
    29    21    22    1
    30     4     5    1
    31     5     6    1
    32     4     7    1
    33     7     8    1
    34    34    35   ar
    35    35    36   ar
    36    36    26   ar
    37    35    29   ar
    38     6     1    1
    39     8     1    1
    40    17    12   ar
    41    22    15    1
    42     9    10    1
    43    18    23    1
