@<TRIPOS>MOLECULE
*****
 26 29 0 0 0
SMALL
GASTEIGER

@<TRIPOS>ATOM
      1 C         139.9557  140.5380  167.4090 C.ar    1  UNL1        0.0015
      2 C         140.1760  141.5594  166.3328 C.ar    1  UNL1        0.0032
      3 C         139.3852  141.4905  165.0601 C.ar    1  UNL1        0.0369
      4 C         138.3740  140.4001  164.8636 C.ar    1  UNL1        0.1384
      5 C         138.1537  139.3786  165.9397 C.ar    1  UNL1        0.0369
      6 C         138.9446  139.4476  167.2125 C.ar    1  UNL1        0.0032
      7 C         142.6405  139.2104  167.5806 C.3     1  UNL1        0.0539
      8 C         142.0890  139.9432  168.7675 C.ar    1  UNL1        0.0789
      9 N         142.8798  140.0122  170.0402 N.ar    1  UNL1       -0.1746
     10 N         142.3283  140.7450  171.2271 N.ar    1  UNL1       -0.2424
     11 C         140.9859  141.4089  171.1413 C.ar    1  UNL1        0.2732
     12 O         140.4344  142.1417  172.3283 O.2     1  UNL1       -0.2658
     13 C         140.1951  141.3398  169.8686 C.ar    1  UNL1        0.0632
     14 C         140.7466  140.6070  168.6817 C.ar    1  UNL1        0.0200
     15 H         142.8474  140.7903  172.0624 H       1  UNL1        0.1921
     16 O         137.5832  140.3311  163.5909 O.3     1  UNL1       -0.4791
     17 C         138.2353  139.8528  162.3276 C.3     1  UNL1        0.1687
     18 C         138.1039  140.6535  161.0660 C.3     1  UNL1        0.0609
     19 C         138.7561  140.1753  159.8027 C.3     1  UNL1        0.0758
     20 N         139.5397  138.8963  159.8010 N.3     1  UNL1       -0.2737
     21 C         139.6711  138.0955  161.0625 C.3     1  UNL1        0.0758
     22 C         139.0189  138.5738  162.3258 C.3     1  UNL1        0.0609
     23 C         140.1918  138.4180  158.5377 C.3     1  UNL1        0.0575
     24 C         139.6987  137.9601  157.1970 C.3     1  UNL1        0.0160
     25 C         141.1141  137.7416  156.7511 C.3     1  UNL1        0.0028
     26 C         141.6073  138.1994  158.0917 C.3     1  UNL1        0.0160
@<TRIPOS>BOND
     1     7     8    1
     2     8     9   ar
     3     9    10   ar
     4    10    11   ar
     5    11    12    2
     6    11    13   ar
     7    13    14   ar
     8    14     1    1
     9     1     2   ar
    10     2     3   ar
    11     3     4   ar
    12     4    16    1
    13    16    17    1
    14    17    18    1
    15    18    19    1
    16    19    20    1
    17    20    23    1
    18    23    24    1
    19    24    25    1
    20    25    26    1
    21    20    21    1
    22    21    22    1
    23     4     5   ar
    24     5     6   ar
    25    14     8   ar
    26     6     1   ar
    27    22    17    1
    28    26    23    1
    29    10    15    1
@<TRIPOS>MOLECULE
*****
 26 29 0 0 0
SMALL
GASTEIGER

@<TRIPOS>ATOM
      1 C         140.0051  141.1174  166.9140 C.ar    1  UNL1        0.0015
      2 C         140.1980  142.5207  166.4203 C.ar    1  UNL1        0.0032
      3 C         139.4298  143.0084  165.2279 C.ar    1  UNL1        0.0369
      4 C         138.4686  142.0930  164.5291 C.ar    1  UNL1        0.1384
      5 C         138.2757  140.6898  165.0229 C.ar    1  UNL1        0.0369
      6 C         139.0440  140.2020  166.2153 C.ar    1  UNL1        0.0032
      7 C         142.4566  139.4310  166.5317 C.3     1  UNL1        0.0539
      8 C         141.9991  139.7865  167.9153 C.ar    1  UNL1        0.0789
      9 N         142.7673  139.2987  169.1078 N.ar    1  UNL1       -0.1746
     10 N         142.3098  139.6542  170.4913 N.ar    1  UNL1       -0.2424
     11 C         141.0840  140.4974  170.6825 C.ar    1  UNL1        0.2732
     12 O         140.6265  140.8529  172.0661 O.2     1  UNL1       -0.2658
     13 C         140.3158  140.9851  169.4901 C.ar    1  UNL1        0.0632
     14 C         140.7734  140.6297  168.1065 C.ar    1  UNL1        0.0200
     15 H         142.8140  139.3341  171.2740 H       1  UNL1        0.1921
     16 O         137.7004  142.5808  163.3367 O.3     1  UNL1       -0.4791
     17 C         138.4254  143.2055  162.1817 C.3     1  UNL1        0.1687
     18 C         138.4602  142.5099  160.8533 C.3     1  UNL1        0.0609
     19 C         139.1852  143.1346  159.6982 C.3     1  UNL1        0.0758
     20 N         139.8755  144.4549  159.8717 N.3     1  UNL1       -0.2737
     21 C         139.8408  145.1506  161.2001 C.3     1  UNL1        0.0758
     22 C         139.1157  144.5259  162.3551 C.3     1  UNL1        0.0609
     23 C         140.6006  145.0796  158.7166 C.3     1  UNL1        0.0575
     24 C         142.0064  145.0317  158.1957 C.3     1  UNL1        0.0160
     25 C         141.6259  145.9631  157.0832 C.3     1  UNL1        0.0028
     26 C         140.2200  146.0110  157.6040 C.3     1  UNL1        0.0160
@<TRIPOS>BOND
     1     7     8    1
     2     8     9   ar
     3     9    10   ar
     4    10    11   ar
     5    11    12    2
     6    11    13   ar
     7    13    14   ar
     8    14     1    1
     9     1     2   ar
    10     2     3   ar
    11     3     4   ar
    12     4    16    1
    13    16    17    1
    14    17    18    1
    15    18    19    1
    16    19    20    1
    17    20    23    1
    18    23    24    1
    19    24    25    1
    20    25    26    1
    21    20    21    1
    22    21    22    1
    23     4     5   ar
    24     5     6   ar
    25    14     8   ar
    26     6     1   ar
    27    22    17    1
    28    26    23    1
    29    10    15    1
@<TRIPOS>MOLECULE
*****
 26 29 0 0 0
SMALL
GASTEIGER

@<TRIPOS>ATOM
      1 C         142.3715  140.2733  167.4971 C.ar    1  UNL1        0.0015
      2 C         142.4870  141.2887  166.3990 C.ar    1  UNL1        0.0032
      3 C         143.2171  140.9460  165.1344 C.ar    1  UNL1        0.0369
      4 C         143.8318  139.5878  164.9677 C.ar    1  UNL1        0.1384
      5 C         143.7163  138.5724  166.0657 C.ar    1  UNL1        0.0369
      6 C         142.9861  138.9152  167.3304 C.ar    1  UNL1        0.0032
      7 C         143.6650  142.0461  169.5426 C.3     1  UNL1        0.0539
      8 C         142.2881  141.5024  169.7845 C.ar    1  UNL1        0.0789
      9 N         141.5580  141.8452  171.0492 N.ar    1  UNL1       -0.1746
     10 N         140.1811  141.3015  171.2911 N.ar    1  UNL1       -0.2424
     11 C         139.5343  140.4151  170.2684 C.ar    1  UNL1        0.2732
     12 O         138.1574  139.8714  170.5103 O.2     1  UNL1       -0.2658
     13 C         140.2645  140.0724  169.0038 C.ar    1  UNL1        0.0632
     14 C         141.6414  140.6160  168.7618 C.ar    1  UNL1        0.0200
     15 H         139.7019  141.5264  172.1212 H       1  UNL1        0.1921
     16 O         144.5619  139.2451  163.7030 O.3     1  UNL1       -0.4791
     17 C         143.7943  138.9860  162.4405 C.3     1  UNL1        0.1687
     18 C         144.2445  139.6023  161.1492 C.3     1  UNL1        0.0609
     19 C         143.4770  139.3431  159.8868 C.3     1  UNL1        0.0758
     20 N         142.2593  138.4678  159.9157 N.3     1  UNL1       -0.2737
     21 C         141.8091  137.8515  161.2070 C.3     1  UNL1        0.0758
     22 C         142.5766  138.1106  162.4694 C.3     1  UNL1        0.0609
     23 C         141.4917  138.2087  158.6532 C.3     1  UNL1        0.0575
     24 C         140.0699  138.4044  158.2172 C.3     1  UNL1        0.0160
     25 C         140.4063  137.8422  156.8679 C.3     1  UNL1        0.0028
     26 C         141.8281  137.6464  157.3038 C.3     1  UNL1        0.0160
@<TRIPOS>BOND
     1     7     8    1
     2     8     9   ar
     3     9    10   ar
     4    10    11   ar
     5    11    12    2
     6    11    13   ar
     7    13    14   ar
     8    14     1    1
     9     1     2   ar
    10     2     3   ar
    11     3     4   ar
    12     4    16    1
    13    16    17    1
    14    17    18    1
    15    18    19    1
    16    19    20    1
    17    20    23    1
    18    23    24    1
    19    24    25    1
    20    25    26    1
    21    20    21    1
    22    21    22    1
    23     4     5   ar
    24     5     6   ar
    25    14     8   ar
    26     6     1   ar
    27    22    17    1
    28    26    23    1
    29    10    15    1
@<TRIPOS>MOLECULE
*****
 26 29 0 0 0
SMALL
GASTEIGER

@<TRIPOS>ATOM
      1 C         140.3545  141.4893  167.6707 C.ar    1  UNL1        0.0015
      2 C         140.0857  142.5313  166.6257 C.ar    1  UNL1        0.0032
      3 C         139.2980  142.1778  165.3992 C.ar    1  UNL1        0.0369
      4 C         138.7790  140.7821  165.2175 C.ar    1  UNL1        0.1384
      5 C         139.0478  139.7401  166.2625 C.ar    1  UNL1        0.0369
      6 C         139.8356  140.0937  167.4891 C.ar    1  UNL1        0.0032
      7 C         139.0402  141.4287  170.3668 C.3     1  UNL1        0.0539
      8 C         140.4851  141.8126  170.2453 C.ar    1  UNL1        0.0789
      9 N         141.2729  142.1662  171.4718 N.ar    1  UNL1       -0.1746
     10 N         142.7178  142.5501  171.3503 N.ar    1  UNL1       -0.2424
     11 C         143.3750  142.5804  170.0023 C.ar    1  UNL1        0.2732
     12 O         144.8199  142.9643  169.8808 O.2     1  UNL1       -0.2658
     13 C         142.5872  142.2268  168.7758 C.ar    1  UNL1        0.0632
     14 C         141.1423  141.8429  168.8973 C.ar    1  UNL1        0.0200
     15 H         143.2348  142.7822  172.1553 H       1  UNL1        0.1921
     16 O         137.9913  140.4286  163.9910 O.3     1  UNL1       -0.4791
     17 C         138.6982  139.9482  162.7583 C.3     1  UNL1        0.1687
     18 C         138.4572  138.5580  162.2492 C.3     1  UNL1        0.0609
     19 C         139.1641  138.0776  161.0165 C.3     1  UNL1        0.0758
     20 N         140.1119  138.9874  160.2929 N.3     1  UNL1       -0.2737
     21 C         140.3529  140.3776  160.8019 C.3     1  UNL1        0.0758
     22 C         139.6460  140.8580  162.0346 C.3     1  UNL1        0.0609
     23 C         140.8188  138.5070  159.0602 C.3     1  UNL1        0.0575
     24 C         142.2419  138.1868  158.7103 C.3     1  UNL1        0.0160
     25 C         141.8184  137.8276  157.3169 C.3     1  UNL1        0.0028
     26 C         140.3954  138.1478  157.6667 C.3     1  UNL1        0.0160
@<TRIPOS>BOND
     1     7     8    1
     2     8     9   ar
     3     9    10   ar
     4    10    11   ar
     5    11    12    2
     6    11    13   ar
     7    13    14   ar
     8    14     1    1
     9     1     2   ar
    10     2     3   ar
    11     3     4   ar
    12     4    16    1
    13    16    17    1
    14    17    18    1
    15    18    19    1
    16    19    20    1
    17    20    23    1
    18    23    24    1
    19    24    25    1
    20    25    26    1
    21    20    21    1
    22    21    22    1
    23     4     5   ar
    24     5     6   ar
    25    14     8   ar
    26     6     1   ar
    27    22    17    1
    28    26    23    1
    29    10    15    1
@<TRIPOS>MOLECULE
*****
 26 29 0 0 0
SMALL
GASTEIGER

@<TRIPOS>ATOM
      1 C         142.1077  140.3848  167.0653 C.ar    1  UNL1        0.0015
      2 C         142.8512  139.1053  166.8198 C.ar    1  UNL1        0.0032
      3 C         143.7296  138.9684  165.6116 C.ar    1  UNL1        0.0369
      4 C         143.8645  140.1108  164.6489 C.ar    1  UNL1        0.1384
      5 C         143.1209  141.3902  164.8944 C.ar    1  UNL1        0.0369
      6 C         142.2425  141.5272  166.1027 C.ar    1  UNL1        0.0032
      7 C         139.2700  139.4155  166.9745 C.3     1  UNL1        0.0539
      8 C         139.8105  140.0371  168.2281 C.ar    1  UNL1        0.0789
      9 N         138.9322  140.1741  169.4363 N.ar    1  UNL1       -0.1746
     10 N         139.4727  140.7956  170.6899 N.ar    1  UNL1       -0.2424
     11 C         140.8915  141.2803  170.7353 C.ar    1  UNL1        0.2732
     12 O         141.4319  141.9019  171.9889 O.2     1  UNL1       -0.2658
     13 C         141.7698  141.1433  169.5271 C.ar    1  UNL1        0.0632
     14 C         141.2293  140.5217  168.2735 C.ar    1  UNL1        0.0200
     15 H         138.8962  140.8855  171.4829 H       1  UNL1        0.1921
     16 O         144.7428  139.9738  163.4408 O.3     1  UNL1       -0.4791
     17 C         144.1597  139.5127  162.1379 C.3     1  UNL1        0.1687
     18 C         143.9854  140.4843  161.0086 C.3     1  UNL1        0.0609
     19 C         143.4023  140.0232  159.7058 C.3     1  UNL1        0.0758
     20 N         142.9935  138.5905  159.5323 N.3     1  UNL1       -0.2737
     21 C         143.1679  137.6189  160.6616 C.3     1  UNL1        0.0758
     22 C         143.7510  138.0800  161.9645 C.3     1  UNL1        0.0609
     23 C         142.4104  138.1294  158.2294 C.3     1  UNL1        0.0575
     24 C         141.3304  138.6275  157.3153 C.3     1  UNL1        0.0160
     25 C         141.5858  137.4773  156.3870 C.3     1  UNL1        0.0028
     26 C         142.6658  136.9792  157.3010 C.3     1  UNL1        0.0160
@<TRIPOS>BOND
     1     7     8    1
     2     8     9   ar
     3     9    10   ar
     4    10    11   ar
     5    11    12    2
     6    11    13   ar
     7    13    14   ar
     8    14     1    1
     9     1     2   ar
    10     2     3   ar
    11     3     4   ar
    12     4    16    1
    13    16    17    1
    14    17    18    1
    15    18    19    1
    16    19    20    1
    17    20    23    1
    18    23    24    1
    19    24    25    1
    20    25    26    1
    21    20    21    1
    22    21    22    1
    23     4     5   ar
    24     5     6   ar
    25    14     8   ar
    26     6     1   ar
    27    22    17    1
    28    26    23    1
    29    10    15    1
@<TRIPOS>MOLECULE
*****
 26 29 0 0 0
SMALL
GASTEIGER

@<TRIPOS>ATOM
      1 C         142.0300  140.2159  167.0590 C.ar    1  UNL1        0.0015
      2 C         142.7182  138.9556  166.6255 C.ar    1  UNL1        0.0032
      3 C         143.7543  139.0014  165.5419 C.ar    1  UNL1        0.0369
      4 C         144.1024  140.3076  164.8918 C.ar    1  UNL1        0.1384
      5 C         143.4142  141.5680  165.3252 C.ar    1  UNL1        0.0369
      6 C         142.3780  141.5221  166.4089 C.ar    1  UNL1        0.0032
      7 C         139.2208  139.3839  166.4140 C.3     1  UNL1        0.0539
      8 C         139.5892  139.7540  167.8201 C.ar    1  UNL1        0.0789
      9 N         138.5531  139.7082  168.9038 N.ar    1  UNL1       -0.1746
     10 N         138.9215  140.0783  170.3099 N.ar    1  UNL1       -0.2424
     11 C         140.3261  140.4943  170.6324 C.ar    1  UNL1        0.2732
     12 O         140.6946  140.8645  172.0386 O.2     1  UNL1       -0.2658
     13 C         141.3622  140.5402  169.5488 C.ar    1  UNL1        0.0632
     14 C         140.9938  140.1700  168.1427 C.ar    1  UNL1        0.0200
     15 H         138.2415  140.0482  171.0211 H       1  UNL1        0.1921
     16 O         145.1385  140.3535  163.8082 O.3     1  UNL1       -0.4791
     17 C         144.7439  140.7193  162.4080 C.3     1  UNL1        0.1687
     18 C         144.9671  142.1151  161.9063 C.3     1  UNL1        0.0609
     19 C         144.5724  142.4810  160.5062 C.3     1  UNL1        0.0758
     20 N         143.9545  141.4509  159.6077 N.3     1  UNL1       -0.2737
     21 C         143.7313  140.0551  160.1094 C.3     1  UNL1        0.0758
     22 C         144.1260  139.6893  161.5096 C.3     1  UNL1        0.0609
     23 C         143.5598  141.8168  158.2076 C.3     1  UNL1        0.0575
     24 C         142.3077  141.6906  157.3912 C.3     1  UNL1        0.0160
     25 C         143.0017  142.3341  156.2275 C.3     1  UNL1        0.0028
     26 C         144.2537  142.4603  157.0438 C.3     1  UNL1        0.0160
@<TRIPOS>BOND
     1     7     8    1
     2     8     9   ar
     3     9    10   ar
     4    10    11   ar
     5    11    12    2
     6    11    13   ar
     7    13    14   ar
     8    14     1    1
     9     1     2   ar
    10     2     3   ar
    11     3     4   ar
    12     4    16    1
    13    16    17    1
    14    17    18    1
    15    18    19    1
    16    19    20    1
    17    20    23    1
    18    23    24    1
    19    24    25    1
    20    25    26    1
    21    20    21    1
    22    21    22    1
    23     4     5   ar
    24     5     6   ar
    25    14     8   ar
    26     6     1   ar
    27    22    17    1
    28    26    23    1
    29    10    15    1
@<TRIPOS>MOLECULE
*****
 26 29 0 0 0
SMALL
GASTEIGER

@<TRIPOS>ATOM
      1 C         140.1591  141.4271  167.1117 C.ar    1  UNL1        0.0015
      2 C         139.6066  140.0370  167.0008 C.ar    1  UNL1        0.0032
      3 C         138.7572  139.6592  165.8237 C.ar    1  UNL1        0.0369
      4 C         138.4601  140.6715  164.7574 C.ar    1  UNL1        0.1384
      5 C         139.0126  142.0617  164.8682 C.ar    1  UNL1        0.0369
      6 C         139.8621  142.4395  166.0454 C.ar    1  UNL1        0.0032
      7 C         143.0444  142.1441  166.7109 C.3     1  UNL1        0.0539
      8 C         142.4512  142.1634  168.0885 C.ar    1  UNL1        0.0789
      9 N         143.3006  142.5411  169.2657 N.ar    1  UNL1       -0.1746
     10 N         142.7074  142.5604  170.6432 N.ar    1  UNL1       -0.2424
     11 C         141.2647  142.2019  170.8436 C.ar    1  UNL1        0.2732
     12 O         140.6715  142.2211  172.2212 O.2     1  UNL1       -0.2658
     13 C         140.4153  141.8241  169.6665 C.ar    1  UNL1        0.0632
     14 C         141.0086  141.8049  168.2889 C.ar    1  UNL1        0.0200
     15 H         143.2649  142.8083  171.4158 H       1  UNL1        0.1921
     16 O         137.6107  140.2937  163.5802 O.3     1  UNL1       -0.4791
     17 C         138.2561  139.8422  162.3037 C.3     1  UNL1        0.1687
     18 C         138.1192  140.6701  161.0604 C.3     1  UNL1        0.0609
     19 C         138.7646  140.2186  159.7838 C.3     1  UNL1        0.0758
     20 N         139.5469  138.9392  159.7506 N.3     1  UNL1       -0.2737
     21 C         139.6838  138.1113  160.9939 C.3     1  UNL1        0.0758
     22 C         139.0384  138.5628  162.2704 C.3     1  UNL1        0.0609
     23 C         140.1923  138.4877  158.4740 C.3     1  UNL1        0.0575
     24 C         139.7121  137.8120  157.2238 C.3     1  UNL1        0.0160
     25 C         141.1050  137.8492  156.6687 C.3     1  UNL1        0.0028
     26 C         141.5853  138.5248  157.9188 C.3     1  UNL1        0.0160
@<TRIPOS>BOND
     1     7     8    1
     2     8     9   ar
     3     9    10   ar
     4    10    11   ar
     5    11    12    2
     6    11    13   ar
     7    13    14   ar
     8    14     1    1
     9     1     2   ar
    10     2     3   ar
    11     3     4   ar
    12     4    16    1
    13    16    17    1
    14    17    18    1
    15    18    19    1
    16    19    20    1
    17    20    23    1
    18    23    24    1
    19    24    25    1
    20    25    26    1
    21    20    21    1
    22    21    22    1
    23     4     5   ar
    24     5     6   ar
    25    14     8   ar
    26     6     1   ar
    27    22    17    1
    28    26    23    1
    29    10    15    1
@<TRIPOS>MOLECULE
*****
 26 29 0 0 0
SMALL
GASTEIGER

@<TRIPOS>ATOM
      1 C         140.9813  142.3149  166.8613 C.ar    1  UNL1        0.0015
      2 C         140.0860  143.2035  166.0496 C.ar    1  UNL1        0.0032
      3 C         140.6192  143.8905  164.8275 C.ar    1  UNL1        0.0369
      4 C         142.0478  143.6889  164.4170 C.ar    1  UNL1        0.1384
      5 C         142.9431  142.8002  165.2286 C.ar    1  UNL1        0.0369
      6 C         142.4098  142.1132  166.4507 C.ar    1  UNL1        0.0032
      7 C         139.3679  139.8007  166.5851 C.3     1  UNL1        0.0539
      8 C         139.6413  140.3708  167.9453 C.ar    1  UNL1        0.0789
      9 N         139.1080  139.6839  169.1675 N.ar    1  UNL1       -0.1746
     10 N         139.3814  140.2539  170.5277 N.ar    1  UNL1       -0.2424
     11 C         140.1880  141.5110  170.6658 C.ar    1  UNL1        0.2732
     12 O         140.4614  142.0810  172.0261 O.2     1  UNL1       -0.2658
     13 C         140.7213  142.1979  169.4437 C.ar    1  UNL1        0.0632
     14 C         140.4479  141.6278  168.0834 C.ar    1  UNL1        0.0200
     15 H         139.0313  139.8030  171.3298 H       1  UNL1        0.1921
     16 O         142.5811  144.3759  163.1948 O.3     1  UNL1       -0.4791
     17 C         142.8909  143.5797  161.9619 C.3     1  UNL1        0.1687
     18 C         144.3155  143.2771  161.6029 C.3     1  UNL1        0.0609
     19 C         144.6254  142.4809  160.3700 C.3     1  UNL1        0.0758
     20 N         143.5106  141.9873  159.4961 N.3     1  UNL1       -0.2737
     21 C         142.0861  142.2899  159.8552 C.3     1  UNL1        0.0758
     22 C         141.7762  143.0861  161.0881 C.3     1  UNL1        0.0609
     23 C         143.8205  141.1911  158.2632 C.3     1  UNL1        0.0575
     24 C         144.9482  141.1628  157.2744 C.3     1  UNL1        0.0160
     25 C         144.2587  140.0652  156.5196 C.3     1  UNL1        0.0028
     26 C         143.1310  140.0935  157.5083 C.3     1  UNL1        0.0160
@<TRIPOS>BOND
     1     7     8    1
     2     8     9   ar
     3     9    10   ar
     4    10    11   ar
     5    11    12    2
     6    11    13   ar
     7    13    14   ar
     8    14     1    1
     9     1     2   ar
    10     2     3   ar
    11     3     4   ar
    12     4    16    1
    13    16    17    1
    14    17    18    1
    15    18    19    1
    16    19    20    1
    17    20    23    1
    18    23    24    1
    19    24    25    1
    20    25    26    1
    21    20    21    1
    22    21    22    1
    23     4     5   ar
    24     5     6   ar
    25    14     8   ar
    26     6     1   ar
    27    22    17    1
    28    26    23    1
    29    10    15    1
@<TRIPOS>MOLECULE
*****
 26 29 0 0 0
SMALL
GASTEIGER

@<TRIPOS>ATOM
      1 C         140.3360  142.1395  166.9376 C.ar    1  UNL1        0.0015
      2 C         139.9584  143.3658  166.1607 C.ar    1  UNL1        0.0032
      3 C         138.9663  143.2676  165.0399 C.ar    1  UNL1        0.0369
      4 C         138.3518  141.9431  164.6961 C.ar    1  UNL1        0.1384
      5 C         138.7294  140.7168  165.4730 C.ar    1  UNL1        0.0369
      6 C         139.7215  140.8150  166.5938 C.ar    1  UNL1        0.0032
      7 C         143.2672  142.3448  166.3326 C.3     1  UNL1        0.0539
      8 C         142.7937  142.3404  167.7559 C.ar    1  UNL1        0.0789
      9 N         143.7857  142.4386  168.8766 N.ar    1  UNL1       -0.1746
     10 N         143.3122  142.4341  170.2999 N.ar    1  UNL1       -0.2424
     11 C         141.8467  142.3314  170.6025 C.ar    1  UNL1        0.2732
     12 O         141.3732  142.3269  172.0258 O.2     1  UNL1       -0.2658
     13 C         140.8546  142.2332  169.4817 C.ar    1  UNL1        0.0632
     14 C         141.3282  142.2377  168.0584 C.ar    1  UNL1        0.0200
     15 H         143.9634  142.4985  171.0355 H       1  UNL1        0.1921
     16 O         137.3597  141.8450  163.5754 O.3     1  UNL1       -0.4791
     17 C         137.7921  141.3320  162.2338 C.3     1  UNL1        0.1687
     18 C         138.2518  142.2915  161.1764 C.3     1  UNL1        0.0609
     19 C         138.6841  141.7785  159.8348 C.3     1  UNL1        0.0758
     20 N         138.6568  140.3059  159.5506 N.3     1  UNL1       -0.2737
     21 C         138.1971  139.3464  160.6079 C.3     1  UNL1        0.0758
     22 C         137.7648  139.8594  161.9495 C.3     1  UNL1        0.0609
     23 C         139.0892  139.7929  158.2090 C.3     1  UNL1        0.0575
     24 C         140.0488  138.7424  157.7340 C.3     1  UNL1        0.0160
     25 C         139.7006  139.0675  156.3117 C.3     1  UNL1        0.0028
     26 C         138.7410  140.1180  156.7865 C.3     1  UNL1        0.0160
@<TRIPOS>BOND
     1     7     8    1
     2     8     9   ar
     3     9    10   ar
     4    10    11   ar
     5    11    12    2
     6    11    13   ar
     7    13    14   ar
     8    14     1    1
     9     1     2   ar
    10     2     3   ar
    11     3     4   ar
    12     4    16    1
    13    16    17    1
    14    17    18    1
    15    18    19    1
    16    19    20    1
    17    20    23    1
    18    23    24    1
    19    24    25    1
    20    25    26    1
    21    20    21    1
    22    21    22    1
    23     4     5   ar
    24     5     6   ar
    25    14     8   ar
    26     6     1   ar
    27    22    17    1
    28    26    23    1
    29    10    15    1
