@<TRIPOS>MOLECULE
*****
 29 33 0 0 0
SMALL
GASTEIGER

@<TRIPOS>ATOM
      1 O         138.5077  139.1325  167.8090 O.2     1  UNL1       -0.2699
      2 C         139.4744  140.2793  167.8203 C.2     1  UNL1        0.2491
      3 N         139.6117  141.1565  166.6112 N.am    1  UNL1       -0.2761
      4 C         138.7823  140.8867  165.3909 C.3     1  UNL1        0.0937
      5 C         138.9197  141.7639  164.1819 C.3     1  UNL1        0.0217
      6 C         139.8864  142.9107  164.1932 C.3     1  UNL1        0.0060
      7 C         139.0570  142.6410  162.9728 C.3     1  UNL1        0.0175
      8 C         139.1943  143.5181  161.7638 C.3     1  UNL1        0.0724
      9 N         140.1611  144.6650  161.7751 N.3     1  UNL1       -0.2689
     10 C         140.9905  144.9347  162.9955 C.3     1  UNL1        0.0724
     11 C         140.8532  144.0576  164.2046 C.3     1  UNL1        0.0175
     12 C         140.7158  143.1804  165.4136 C.3     1  UNL1        0.0217
     13 C         140.5785  142.3033  166.6226 C.3     1  UNL1        0.0937
     14 C         140.3038  140.5490  169.0407 C.ar    1  UNL1        0.0567
     15 C         141.6129  139.8414  169.2292 C.ar    1  UNL1        0.0252
     16 C         142.4423  140.1112  170.4497 C.ar    1  UNL1        0.0990
     17 N         141.9626  141.0886  171.4814 N.ar    1  UNL1       -0.2423
     18 C         140.6535  141.7962  171.2929 C.ar    1  UNL1        0.0990
     19 C         139.8241  141.5264  170.0725 C.ar    1  UNL1        0.0252
     20 C         140.2984  145.5421  160.5660 C.3     1  UNL1        0.1022
     21 C         141.0619  145.0563  159.3698 C.ar    1  UNL1        0.0275
     22 C         142.1361  144.0225  159.5348 C.ar    1  UNL1        0.0001
     23 C         142.8996  143.5367  158.3386 C.ar    1  UNL1       -0.0004
     24 C         142.5889  144.0846  156.9772 C.ar    1  UNL1       -0.0012
     25 C         141.5146  145.1184  156.8122 C.ar    1  UNL1        0.0152
     26 C         140.7511  145.6042  158.0085 C.ar    1  UNL1        0.1319
     27 O         139.7547  146.6229  157.5400 O.3     1  UNL1       -0.4757
     28 C         139.9024  146.7666  156.0542 C.3     1  UNL1        0.2101
     29 C         140.9900  145.8368  155.6044 C.3     1  UNL1        0.0767
@<TRIPOS>BOND
     1     1     2    2
     2     2    14    1
     3    14    15   ar
     4    15    16   ar
     5    16    17   ar
     6    17    18   ar
     7    18    19   ar
     8     2     3   am
     9     3     4    1
    10     4     5    1
    11     5     6    1
    12     6     7    1
    13     7     8    1
    14     8     9    1
    15     9    20    1
    16    20    21    1
    17    21    22   ar
    18    22    23   ar
    19    23    24   ar
    20    24    25   ar
    21    25    26   ar
    22    26    27    1
    23    27    28    1
    24    28    29    1
    25     9    10    1
    26    10    11    1
    27     6    12    1
    28    12    13    1
    29    19    14   ar
    30    13     3    1
    31    11     6    1
    32    26    21   ar
    33    29    25    1
@<TRIPOS>MOLECULE
*****
 29 33 0 0 0
SMALL
GASTEIGER

@<TRIPOS>ATOM
      1 O         138.5541  139.0962  167.7262 O.2     1  UNL1       -0.2699
      2 C         139.4882  140.2685  167.7805 C.2     1  UNL1        0.2491
      3 N         139.6254  141.1739  166.5924 N.am    1  UNL1       -0.2761
      4 C         138.8284  140.9069  165.3500 C.3     1  UNL1        0.0937
      5 C         138.9656  141.8122  164.1620 C.3     1  UNL1        0.0217
      6 C         139.8998  142.9846  164.2163 C.3     1  UNL1        0.0060
      7 C         139.1028  142.7176  162.9739 C.3     1  UNL1        0.0175
      8 C         139.2400  143.6229  161.7858 C.3     1  UNL1        0.0724
      9 N         140.1741  144.7953  161.8402 N.3     1  UNL1       -0.2689
     10 C         140.9711  145.0623  163.0825 C.3     1  UNL1        0.0724
     11 C         140.8339  144.1569  164.2706 C.3     1  UNL1        0.0175
     12 C         140.6967  143.2516  165.4587 C.3     1  UNL1        0.0217
     13 C         140.5595  142.3462  166.6467 C.3     1  UNL1        0.0937
     14 C         140.2852  140.5355  169.0229 C.ar    1  UNL1        0.0567
     15 C         141.5783  139.8116  169.2545 C.ar    1  UNL1        0.0252
     16 C         142.3753  140.0787  170.4969 C.ar    1  UNL1        0.0990
     17 N         141.8791  141.0696  171.5077 N.ar    1  UNL1       -0.2423
     18 C         140.5859  141.7935  171.2761 C.ar    1  UNL1        0.0990
     19 C         139.7890  141.5265  170.0338 C.ar    1  UNL1        0.0252
     20 C         140.3113  145.7006  160.6520 C.3     1  UNL1        0.1022
     21 C         140.8897  145.1753  159.3716 C.ar    1  UNL1        0.0275
     22 C         140.2763  145.5601  158.0580 C.ar    1  UNL1        0.0001
     23 C         140.8548  145.0348  156.7776 C.ar    1  UNL1       -0.0004
     24 C         142.0468  144.1247  156.8109 C.ar    1  UNL1       -0.0012
     25 C         142.6602  143.7400  158.1245 C.ar    1  UNL1        0.0152
     26 C         142.0817  144.2653  159.4049 C.ar    1  UNL1        0.1319
     27 O         142.8942  143.7167  160.5401 O.3     1  UNL1       -0.4757
     28 C         143.9749  142.8523  159.9613 C.3     1  UNL1        0.2101
     29 C         143.8303  142.8667  158.4684 C.3     1  UNL1        0.0767
@<TRIPOS>BOND
     1     1     2    2
     2     2    14    1
     3    14    15   ar
     4    15    16   ar
     5    16    17   ar
     6    17    18   ar
     7    18    19   ar
     8     2     3   am
     9     3     4    1
    10     4     5    1
    11     5     6    1
    12     6     7    1
    13     7     8    1
    14     8     9    1
    15     9    20    1
    16    20    21    1
    17    21    22   ar
    18    22    23   ar
    19    23    24   ar
    20    24    25   ar
    21    25    26   ar
    22    26    27    1
    23    27    28    1
    24    28    29    1
    25     9    10    1
    26    10    11    1
    27     6    12    1
    28    12    13    1
    29    19    14   ar
    30    13     3    1
    31    11     6    1
    32    26    21   ar
    33    29    25    1
@<TRIPOS>MOLECULE
*****
 29 33 0 0 0
SMALL
GASTEIGER

@<TRIPOS>ATOM
      1 O         138.5847  139.5058  169.1068 O.2     1  UNL1       -0.2699
      2 C         139.5878  140.2317  168.2603 C.2     1  UNL1        0.2491
      3 N         139.5430  140.1015  166.7666 N.am    1  UNL1       -0.2761
      4 C         138.4951  139.2453  166.1195 C.3     1  UNL1        0.0937
      5 C         138.4503  139.1150  164.6259 C.3     1  UNL1        0.0217
      6 C         139.4534  139.8410  163.7793 C.3     1  UNL1        0.0060
      7 C         138.4054  138.9848  163.1322 C.3     1  UNL1        0.0175
      8 C         138.3606  138.8546  161.6385 C.3     1  UNL1        0.0724
      9 N         139.3638  139.5805  160.7919 N.3     1  UNL1       -0.2689
     10 C         140.4117  140.4367  161.4390 C.3     1  UNL1        0.0724
     11 C         140.4565  140.5670  162.9327 C.3     1  UNL1        0.0175
     12 C         140.5013  140.6972  164.4264 C.3     1  UNL1        0.0217
     13 C         140.5461  140.8274  165.9200 C.3     1  UNL1        0.0937
     14 C         140.6358  141.0879  168.9073 C.ar    1  UNL1        0.0567
     15 C         140.3354  142.5199  169.2376 C.ar    1  UNL1        0.0252
     16 C         141.3834  143.3761  169.8847 C.ar    1  UNL1        0.0990
     17 N         142.7317  142.8003  170.2015 N.ar    1  UNL1       -0.2423
     18 C         143.0321  141.3683  169.8712 C.ar    1  UNL1        0.0990
     19 C         141.9842  140.5121  169.2242 C.ar    1  UNL1        0.0252
     20 C         139.3189  139.4503  159.2982 C.3     1  UNL1        0.1022
     21 C         140.3427  138.6160  158.5871 C.ar    1  UNL1        0.0275
     22 C         141.7070  138.4335  159.1832 C.ar    1  UNL1        0.0001
     23 C         142.7308  137.5992  158.4721 C.ar    1  UNL1       -0.0004
     24 C         142.3903  136.9473  157.1647 C.ar    1  UNL1       -0.0012
     25 C         141.0260  137.1298  156.5686 C.ar    1  UNL1        0.0152
     26 C         140.0022  137.9641  157.2798 C.ar    1  UNL1        0.1319
     27 O         138.7498  137.9641  156.4544 O.3     1  UNL1       -0.4757
     28 C         138.9995  137.1298  155.2330 C.3     1  UNL1        0.2101
     29 C         140.4063  136.6142  155.3036 C.3     1  UNL1        0.0767
@<TRIPOS>BOND
     1     1     2    2
     2     2    14    1
     3    14    15   ar
     4    15    16   ar
     5    16    17   ar
     6    17    18   ar
     7    18    19   ar
     8     2     3   am
     9     3     4    1
    10     4     5    1
    11     5     6    1
    12     6     7    1
    13     7     8    1
    14     8     9    1
    15     9    20    1
    16    20    21    1
    17    21    22   ar
    18    22    23   ar
    19    23    24   ar
    20    24    25   ar
    21    25    26   ar
    22    26    27    1
    23    27    28    1
    24    28    29    1
    25     9    10    1
    26    10    11    1
    27     6    12    1
    28    12    13    1
    29    19    14   ar
    30    13     3    1
    31    11     6    1
    32    26    21   ar
    33    29    25    1
@<TRIPOS>MOLECULE
*****
 29 33 0 0 0
SMALL
GASTEIGER

@<TRIPOS>ATOM
      1 O         143.3319  139.0078  167.3594 O.2     1  UNL1       -0.2699
      2 C         142.4401  140.1988  167.5498 C.2     1  UNL1        0.2491
      3 N         142.1195  141.0893  166.3860 N.am    1  UNL1       -0.2761
      4 C         142.6908  140.7889  165.0320 C.3     1  UNL1        0.0937
      5 C         142.3702  141.6795  163.8684 C.3     1  UNL1        0.0217
      6 C         141.4784  142.8704  164.0588 C.3     1  UNL1        0.0060
      7 C         142.0497  142.5701  162.7047 C.3     1  UNL1        0.0175
      8 C         141.7291  143.4606  161.5410 C.3     1  UNL1        0.0724
      9 N         140.8373  144.6516  161.7314 N.3     1  UNL1       -0.2689
     10 C         140.2660  144.9520  163.0854 C.3     1  UNL1        0.0724
     11 C         140.5866  144.0614  164.2491 C.3     1  UNL1        0.0175
     12 C         140.9071  143.1709  165.4128 C.3     1  UNL1        0.0217
     13 C         141.2277  142.2803  166.5764 C.3     1  UNL1        0.0937
     14 C         141.8688  140.4992  168.9038 C.ar    1  UNL1        0.0567
     15 C         142.6097  141.3994  169.8475 C.ar    1  UNL1        0.0252
     16 C         142.0384  141.6998  171.2015 C.ar    1  UNL1        0.0990
     17 N         140.7262  141.1000  171.6118 N.ar    1  UNL1       -0.2423
     18 C         139.9853  140.1997  170.6681 C.ar    1  UNL1        0.0990
     19 C         140.5566  139.8993  169.3141 C.ar    1  UNL1        0.0252
     20 C         140.5167  145.5422  160.5677 C.3     1  UNL1        0.1022
     21 C         140.6798  145.0329  159.1663 C.ar    1  UNL1        0.0275
     22 C         141.7348  145.6168  158.2741 C.ar    1  UNL1        0.0001
     23 C         141.8979  145.1075  156.8727 C.ar    1  UNL1       -0.0004
     24 C         141.0060  144.0143  156.3634 C.ar    1  UNL1       -0.0012
     25 C         139.9509  143.4304  157.2556 C.ar    1  UNL1        0.0152
     26 C         139.7879  143.9397  158.6570 C.ar    1  UNL1        0.1319
     27 O         138.6684  143.1762  159.3003 O.3     1  UNL1       -0.4757
     28 C         138.1396  142.1950  158.2965 C.3     1  UNL1        0.2101
     29 C         138.9323  142.3521  157.0328 C.3     1  UNL1        0.0767
@<TRIPOS>BOND
     1     1     2    2
     2     2    14    1
     3    14    15   ar
     4    15    16   ar
     5    16    17   ar
     6    17    18   ar
     7    18    19   ar
     8     2     3   am
     9     3     4    1
    10     4     5    1
    11     5     6    1
    12     6     7    1
    13     7     8    1
    14     8     9    1
    15     9    20    1
    16    20    21    1
    17    21    22   ar
    18    22    23   ar
    19    23    24   ar
    20    24    25   ar
    21    25    26   ar
    22    26    27    1
    23    27    28    1
    24    28    29    1
    25     9    10    1
    26    10    11    1
    27     6    12    1
    28    12    13    1
    29    19    14   ar
    30    13     3    1
    31    11     6    1
    32    26    21   ar
    33    29    25    1
@<TRIPOS>MOLECULE
*****
 29 33 0 0 0
SMALL
GASTEIGER

@<TRIPOS>ATOM
      1 O         136.9751  141.4250  162.9349 O.2     1  UNL1       -0.2699
      2 C         138.2535  140.7172  163.2736 C.2     1  UNL1        0.2491
      3 N         139.0436  140.0382  162.1943 N.am    1  UNL1       -0.2761
      4 C         138.5554  140.0672  160.7763 C.3     1  UNL1        0.0937
      5 C         139.3455  139.3883  159.6971 C.3     1  UNL1        0.0217
      6 C         140.6238  138.6805  160.0358 C.3     1  UNL1        0.0060
      7 C         140.1356  138.7094  158.6178 C.3     1  UNL1        0.0175
      8 C         140.9257  138.0305  157.5385 C.3     1  UNL1        0.0724
      9 N         142.2041  137.3227  157.8773 N.3     1  UNL1       -0.2689
     10 C         142.6923  137.2937  159.2953 C.3     1  UNL1        0.0724
     11 C         141.9022  137.9726  160.3746 C.3     1  UNL1        0.0175
     12 C         141.1121  138.6515  161.4538 C.3     1  UNL1        0.0217
     13 C         140.3220  139.3304  162.5331 C.3     1  UNL1        0.0937
     14 C         138.7417  140.6882  164.6916 C.ar    1  UNL1        0.0567
     15 C         139.5819  141.8135  165.2187 C.ar    1  UNL1        0.0252
     16 C         140.0702  141.7845  166.6367 C.ar    1  UNL1        0.0990
     17 N         139.7182  140.6303  167.5277 N.ar    1  UNL1       -0.2423
     18 C         138.8780  139.5050  167.0006 C.ar    1  UNL1        0.0990
     19 C         138.3898  139.5339  165.5826 C.ar    1  UNL1        0.0252
     20 C         142.9942  136.6438  156.7980 C.3     1  UNL1        0.1022
     21 C         142.6074  135.2700  156.3366 C.ar    1  UNL1        0.0275
     22 C         141.4883  135.0966  155.3528 C.ar    1  UNL1        0.0001
     23 C         141.1015  133.7227  154.8914 C.ar    1  UNL1       -0.0004
     24 C         141.8337  132.5222  155.4138 C.ar    1  UNL1       -0.0012
     25 C         142.9527  132.6956  156.3975 C.ar    1  UNL1        0.0152
     26 C         143.3395  134.0695  156.8589 C.ar    1  UNL1        0.1319
     27 O         144.4755  133.9301  157.8285 O.3     1  UNL1       -0.4757
     28 C         144.7908  132.4701  157.9663 C.3     1  UNL1        0.2101
     29 C         143.8496  131.7072  157.0819 C.3     1  UNL1        0.0767
@<TRIPOS>BOND
     1     1     2    2
     2     2    14    1
     3    14    15   ar
     4    15    16   ar
     5    16    17   ar
     6    17    18   ar
     7    18    19   ar
     8     2     3   am
     9     3     4    1
    10     4     5    1
    11     5     6    1
    12     6     7    1
    13     7     8    1
    14     8     9    1
    15     9    20    1
    16    20    21    1
    17    21    22   ar
    18    22    23   ar
    19    23    24   ar
    20    24    25   ar
    21    25    26   ar
    22    26    27    1
    23    27    28    1
    24    28    29    1
    25     9    10    1
    26    10    11    1
    27     6    12    1
    28    12    13    1
    29    19    14   ar
    30    13     3    1
    31    11     6    1
    32    26    21   ar
    33    29    25    1
@<TRIPOS>MOLECULE
*****
 29 33 0 0 0
SMALL
GASTEIGER

@<TRIPOS>ATOM
      1 O         142.9838  138.6368  168.9972 O.2     1  UNL1       -0.2699
      2 C         142.7326  139.9089  168.2432 C.2     1  UNL1        0.2491
      3 N         142.8682  139.9346  166.7495 N.am    1  UNL1       -0.2761
      4 C         143.2550  138.6882  166.0100 C.3     1  UNL1        0.0937
      5 C         143.3906  138.7140  164.5163 C.3     1  UNL1        0.0217
      6 C         143.1394  139.9861  163.7623 C.3     1  UNL1        0.0060
      7 C         143.5262  138.7397  163.0227 C.3     1  UNL1        0.0175
      8 C         143.6617  138.7654  161.5290 C.3     1  UNL1        0.0724
      9 N         143.4106  140.0375  160.7750 N.3     1  UNL1       -0.2689
     10 C         143.0238  141.2839  161.5145 C.3     1  UNL1        0.0724
     11 C         142.8882  141.2582  163.0082 C.3     1  UNL1        0.0175
     12 C         142.7526  141.2325  164.5018 C.3     1  UNL1        0.0217
     13 C         142.6170  141.2067  165.9954 C.3     1  UNL1        0.0937
     14 C         142.3459  141.1553  168.9827 C.ar    1  UNL1        0.0567
     15 C         143.3857  141.9384  169.7279 C.ar    1  UNL1        0.0252
     16 C         142.9989  143.1848  170.4675 C.ar    1  UNL1        0.0990
     17 N         141.5723  143.6481  170.4617 N.ar    1  UNL1       -0.2423
     18 C         140.5324  142.8649  169.7165 C.ar    1  UNL1        0.0990
     19 C         140.9192  141.6186  168.9770 C.ar    1  UNL1        0.0252
     20 C         143.5462  140.0632  159.2813 C.3     1  UNL1        0.1022
     21 C         142.3623  139.7496  158.4152 C.ar    1  UNL1        0.0275
     22 C         141.2753  140.7672  158.2336 C.ar    1  UNL1        0.0001
     23 C         140.0915  140.4536  157.3675 C.ar    1  UNL1       -0.0004
     24 C         139.9946  139.1223  156.6831 C.ar    1  UNL1       -0.0012
     25 C         141.0815  138.1047  156.8647 C.ar    1  UNL1        0.0152
     26 C         142.2654  138.4184  157.7308 C.ar    1  UNL1        0.1319
     27 O         143.1749  137.2256  157.7224 O.3     1  UNL1       -0.4757
     28 C         142.5531  136.1747  156.8511 C.3     1  UNL1        0.2101
     29 C         141.2594  136.7181  156.3210 C.3     1  UNL1        0.0767
@<TRIPOS>BOND
     1     1     2    2
     2     2    14    1
     3    14    15   ar
     4    15    16   ar
     5    16    17   ar
     6    17    18   ar
     7    18    19   ar
     8     2     3   am
     9     3     4    1
    10     4     5    1
    11     5     6    1
    12     6     7    1
    13     7     8    1
    14     8     9    1
    15     9    20    1
    16    20    21    1
    17    21    22   ar
    18    22    23   ar
    19    23    24   ar
    20    24    25   ar
    21    25    26   ar
    22    26    27    1
    23    27    28    1
    24    28    29    1
    25     9    10    1
    26    10    11    1
    27     6    12    1
    28    12    13    1
    29    19    14   ar
    30    13     3    1
    31    11     6    1
    32    26    21   ar
    33    29    25    1
@<TRIPOS>MOLECULE
*****
 29 33 0 0 0
SMALL
GASTEIGER

@<TRIPOS>ATOM
      1 O         136.9774  141.3376  162.9049 O.2     1  UNL1       -0.2699
      2 C         138.2262  140.5839  163.2550 C.2     1  UNL1        0.2491
      3 N         139.0683  139.9822  162.1692 N.am    1  UNL1       -0.2761
      4 C         138.6617  140.1342  160.7334 C.3     1  UNL1        0.0937
      5 C         139.5038  139.5326  159.6477 C.3     1  UNL1        0.0217
      6 C         140.7526  138.7789  159.9978 C.3     1  UNL1        0.0060
      7 C         140.3460  138.9309  158.5619 C.3     1  UNL1        0.0175
      8 C         141.1881  138.3293  157.4762 C.3     1  UNL1        0.0724
      9 N         142.4369  137.5756  157.8263 N.3     1  UNL1       -0.2689
     10 C         142.8435  137.4236  159.2621 C.3     1  UNL1        0.0724
     11 C         142.0014  138.0252  160.3479 C.3     1  UNL1        0.0175
     12 C         141.1592  138.6269  161.4336 C.3     1  UNL1        0.0217
     13 C         140.3171  139.2285  162.5193 C.3     1  UNL1        0.0937
     14 C         138.6328  140.4319  164.6907 C.ar    1  UNL1        0.0567
     15 C         138.1045  139.2866  165.5026 C.ar    1  UNL1        0.0252
     16 C         138.5112  139.1346  166.9385 C.ar    1  UNL1        0.0990
     17 N         139.4461  140.1279  167.5624 N.ar    1  UNL1       -0.2423
     18 C         139.9744  141.2732  166.7505 C.ar    1  UNL1        0.0990
     19 C         139.5678  141.4252  165.3147 C.ar    1  UNL1        0.0252
     20 C         143.2790  136.9739  156.7405 C.3     1  UNL1        0.1022
     21 C         143.0618  135.5490  156.3255 C.ar    1  UNL1        0.0275
     22 C         143.3504  134.4352  157.2879 C.ar    1  UNL1        0.0001
     23 C         143.1332  133.0102  156.8729 C.ar    1  UNL1       -0.0004
     24 C         142.6273  132.6990  155.4954 C.ar    1  UNL1       -0.0012
     25 C         142.3388  133.8128  154.5330 C.ar    1  UNL1        0.0152
     26 C         142.5560  135.2378  154.9481 C.ar    1  UNL1        0.1319
     27 O         142.1869  136.1188  153.7916 O.3     1  UNL1       -0.4757
     28 C         141.7416  135.2383  152.6618 C.3     1  UNL1        0.2101
     29 C         141.8354  133.8131  153.1200 C.3     1  UNL1        0.0767
@<TRIPOS>BOND
     1     1     2    2
     2     2    14    1
     3    14    15   ar
     4    15    16   ar
     5    16    17   ar
     6    17    18   ar
     7    18    19   ar
     8     2     3   am
     9     3     4    1
    10     4     5    1
    11     5     6    1
    12     6     7    1
    13     7     8    1
    14     8     9    1
    15     9    20    1
    16    20    21    1
    17    21    22   ar
    18    22    23   ar
    19    23    24   ar
    20    24    25   ar
    21    25    26   ar
    22    26    27    1
    23    27    28    1
    24    28    29    1
    25     9    10    1
    26    10    11    1
    27     6    12    1
    28    12    13    1
    29    19    14   ar
    30    13     3    1
    31    11     6    1
    32    26    21   ar
    33    29    25    1
@<TRIPOS>MOLECULE
*****
 29 33 0 0 0
SMALL
GASTEIGER

@<TRIPOS>ATOM
      1 O         144.2270  139.7333  157.3658 O.2     1  UNL1       -0.2699
      2 C         143.2550  138.8488  158.0888 C.2     1  UNL1        0.2491
      3 N         143.1922  138.8709  159.5874 N.am    1  UNL1       -0.2761
      4 C         144.1014  139.7775  160.3628 C.3     1  UNL1        0.0937
      5 C         144.0386  139.7995  161.8613 C.3     1  UNL1        0.0217
      6 C         143.0666  138.9150  162.5844 C.3     1  UNL1        0.0060
      7 C         143.9759  139.8216  163.3599 C.3     1  UNL1        0.0175
      8 C         143.9131  139.8437  164.8584 C.3     1  UNL1        0.0724
      9 N         142.9411  138.9592  165.5815 N.3     1  UNL1       -0.2689
     10 C         142.0318  138.0526  164.8060 C.3     1  UNL1        0.0724
     11 C         142.0946  138.0305  163.3074 C.3     1  UNL1        0.0175
     12 C         142.1574  138.0084  161.8089 C.3     1  UNL1        0.0217
     13 C         142.2202  137.9864  160.3105 C.3     1  UNL1        0.0937
     14 C         142.3457  137.9422  157.3134 C.ar    1  UNL1        0.0567
     15 C         140.9718  138.4066  156.9307 C.ar    1  UNL1        0.0252
     16 C         140.0625  137.4999  156.1552 C.ar    1  UNL1        0.0990
     17 N         140.5273  136.1289  155.7625 N.ar    1  UNL1       -0.2423
     18 C         141.9012  135.6645  156.1452 C.ar    1  UNL1        0.0990
     19 C         142.8105  136.5711  156.9206 C.ar    1  UNL1        0.0252
     20 C         142.8783  138.9813  167.0800 C.3     1  UNL1        0.1022
     21 C         142.4183  140.2180  167.7933 C.ar    1  UNL1        0.0275
     22 C         142.9149  140.5143  169.1773 C.ar    1  UNL1        0.0001
     23 C         142.4548  141.7510  169.8905 C.ar    1  UNL1       -0.0004
     24 C         141.4981  142.6916  169.2197 C.ar    1  UNL1       -0.0012
     25 C         141.0015  142.3954  167.8356 C.ar    1  UNL1        0.0152
     26 C         141.4616  141.1586  167.1224 C.ar    1  UNL1        0.1319
     27 O         140.8057  141.1303  165.7737 O.3     1  UNL1       -0.4757
     28 C         139.9403  142.3495  165.6534 C.3     1  UNL1        0.2101
     29 C         140.0613  143.1314  166.9277 C.3     1  UNL1        0.0767
@<TRIPOS>BOND
     1     1     2    2
     2     2    14    1
     3    14    15   ar
     4    15    16   ar
     5    16    17   ar
     6    17    18   ar
     7    18    19   ar
     8     2     3   am
     9     3     4    1
    10     4     5    1
    11     5     6    1
    12     6     7    1
    13     7     8    1
    14     8     9    1
    15     9    20    1
    16    20    21    1
    17    21    22   ar
    18    22    23   ar
    19    23    24   ar
    20    24    25   ar
    21    25    26   ar
    22    26    27    1
    23    27    28    1
    24    28    29    1
    25     9    10    1
    26    10    11    1
    27     6    12    1
    28    12    13    1
    29    19    14   ar
    30    13     3    1
    31    11     6    1
    32    26    21   ar
    33    29    25    1
@<TRIPOS>MOLECULE
*****
 29 33 0 0 0
SMALL
GASTEIGER

@<TRIPOS>ATOM
      1 O         143.2563  138.7175  168.5055 O.2     1  UNL1       -0.2699
      2 C         142.2341  139.5641  167.8065 C.2     1  UNL1        0.2491
      3 N         141.9997  139.3946  166.3347 N.am    1  UNL1       -0.2761
      4 C         142.7873  138.3786  165.5618 C.3     1  UNL1        0.0937
      5 C         142.5528  138.2092  164.0900 C.3     1  UNL1        0.0217
      6 C         141.5307  139.0557  163.3910 C.3     1  UNL1        0.0060
      7 C         142.3184  138.0397  162.6181 C.3     1  UNL1        0.0175
      8 C         142.0839  137.8703  161.1463 C.3     1  UNL1        0.0724
      9 N         141.0617  138.7168  160.4474 N.3     1  UNL1       -0.2689
     10 C         140.2740  139.7328  161.2202 C.3     1  UNL1        0.0724
     11 C         140.5085  139.9023  162.6921 C.3     1  UNL1        0.0175
     12 C         140.7430  140.0717  164.1639 C.3     1  UNL1        0.0217
     13 C         140.9775  140.2411  165.6357 C.3     1  UNL1        0.0937
     14 C         141.4465  140.5801  168.5794 C.ar    1  UNL1        0.0567
     15 C         140.1352  140.1987  169.2000 C.ar    1  UNL1        0.0252
     16 C         139.3475  141.2148  169.9728 C.ar    1  UNL1        0.0990
     17 N         139.8711  142.6121  170.1251 N.ar    1  UNL1       -0.2423
     18 C         141.1824  142.9935  169.5045 C.ar    1  UNL1        0.0990
     19 C         141.9700  141.9775  168.7317 C.ar    1  UNL1        0.0252
     20 C         140.8272  138.5473  158.9755 C.3     1  UNL1        0.1022
     21 C         141.8782  138.9750  157.9945 C.ar    1  UNL1        0.0275
     22 C         142.2247  140.4274  157.8520 C.ar    1  UNL1        0.0001
     23 C         143.2758  140.8550  156.8710 C.ar    1  UNL1       -0.0004
     24 C         143.9804  139.8302  156.0324 C.ar    1  UNL1       -0.0012
     25 C         143.6339  138.3777  156.1748 C.ar    1  UNL1        0.0152
     26 C         142.5828  137.9501  157.1559 C.ar    1  UNL1        0.1319
     27 O         142.4546  136.4577  157.0767 O.3     1  UNL1       -0.4757
     28 C         143.4265  135.9629  156.0468 C.3     1  UNL1        0.2101
     29 C         144.1553  137.1496  155.4894 C.3     1  UNL1        0.0767
@<TRIPOS>BOND
     1     1     2    2
     2     2    14    1
     3    14    15   ar
     4    15    16   ar
     5    16    17   ar
     6    17    18   ar
     7    18    19   ar
     8     2     3   am
     9     3     4    1
    10     4     5    1
    11     5     6    1
    12     6     7    1
    13     7     8    1
    14     8     9    1
    15     9    20    1
    16    20    21    1
    17    21    22   ar
    18    22    23   ar
    19    23    24   ar
    20    24    25   ar
    21    25    26   ar
    22    26    27    1
    23    27    28    1
    24    28    29    1
    25     9    10    1
    26    10    11    1
    27     6    12    1
    28    12    13    1
    29    19    14   ar
    30    13     3    1
    31    11     6    1
    32    26    21   ar
    33    29    25    1
