@<TRIPOS>MOLECULE
*****
 23 25 0 0 0
SMALL
GASTEIGER

@<TRIPOS>ATOM
      1 N         137.9716  140.3927  164.3545 N.ar    1  UNL1       -0.2244
      2 C         137.9727  141.8900  164.4449 C.ar    1  UNL1        0.1329
      3 C         137.6781  142.4370  163.0797 C.ar    1  UNL1        0.1709
      4 N         137.4948  141.2778  162.1455 N.ar    1  UNL1       -0.1138
      5 N         137.6763  140.0144  162.9334 N.ar    1  UNL1       -0.0622
      6 N         137.5832  143.8884  162.7130 N.pl3   1  UNL1       -0.3142
      7 H         136.7093  144.2843  162.4923 H       1  UNL1        0.1483
      8 C         138.8200  144.7367  162.6826 C.3     1  UNL1        0.1058
      9 C         139.5261  145.0794  163.9609 C.3     1  UNL1        0.0936
     10 N         140.9316  144.6088  164.1908 N.3     1  UNL1       -0.2712
     11 C         142.0865  145.4171  163.6783 C.3     1  UNL1        0.0721
     12 C         143.4920  144.9465  163.9082 C.3     1  UNL1        0.0174
     13 C         143.7427  143.6674  164.6508 C.3     1  UNL1        0.0029
     14 C         142.5877  142.8591  165.1633 C.3     1  UNL1        0.0174
     15 C         141.1822  143.3298  164.9333 C.3     1  UNL1        0.0721
     16 C         138.2220  139.4409  165.4865 C.3     1  UNL1        0.1557
     17 F         143.3894  139.1114  165.9216 F       1  UNL1       -0.2042
     18 C         142.0505  139.4050  166.5309 C.ar    1  UNL1        0.1399
     19 C         141.9566  139.8274  167.9671 C.ar    1  UNL1        0.0296
     20 C         140.6177  140.1211  168.5764 C.ar    1  UNL1        0.0020
     21 C         139.3729  139.9922  167.7496 C.ar    1  UNL1       -0.0022
     22 C         139.4669  139.5698  166.3134 C.ar    1  UNL1        0.0044
     23 C         140.8057  139.2762  165.7041 C.ar    1  UNL1        0.0273
@<TRIPOS>BOND
     1    17    18    1
     2    18    19   ar
     3    19    20   ar
     4    20    21   ar
     5    21    22   ar
     6    22    16    1
     7    16     1    1
     8     1     2   ar
     9     2     3   ar
    10     3     6    1
    11     6     8    1
    12     8     9    1
    13     9    10    1
    14    10    11    1
    15    11    12    1
    16    12    13    1
    17    13    14    1
    18    14    15    1
    19     3     4   ar
    20     4     5   ar
    21    22    23   ar
    22    23    18   ar
    23     5     1   ar
    24    15    10    1
    25     6     7    1
@<TRIPOS>MOLECULE
*****
 23 25 0 0 0
SMALL
GASTEIGER

@<TRIPOS>ATOM
      1 N         138.3473  143.3380  163.5965 N.ar    1  UNL1       -0.2244
      2 C         139.7437  143.8114  163.8723 C.ar    1  UNL1        0.1329
      3 C         140.0077  145.0066  163.0053 C.ar    1  UNL1        0.1709
      4 N         138.7744  145.2720  162.1936 N.ar    1  UNL1       -0.1138
      5 N         137.7483  144.2407  162.5590 N.ar    1  UNL1       -0.0622
      6 N         141.2813  145.7977  162.9582 N.pl3   1  UNL1       -0.3142
      7 H         141.3634  146.5623  162.3435 H       1  UNL1        0.1483
      8 C         142.4297  145.4238  163.8476 C.3     1  UNL1        0.1058
      9 C         143.6426  144.7589  163.2671 C.3     1  UNL1        0.0936
     10 N         143.9653  143.3396  163.6292 N.3     1  UNL1       -0.2712
     11 C         144.9181  142.5479  162.7834 C.3     1  UNL1        0.0721
     12 C         145.2409  141.1285  163.1456 C.3     1  UNL1        0.0174
     13 C         144.6108  140.5008  164.3535 C.3     1  UNL1        0.0029
     14 C         143.6580  141.2925  165.1993 C.3     1  UNL1        0.0174
     15 C         143.3352  142.7119  164.8371 C.3     1  UNL1        0.0721
     16 C         137.6691  142.1675  164.2444 C.3     1  UNL1        0.1557
     17 F         139.2724  137.3342  165.2784 F       1  UNL1       -0.2042
     18 C         138.7765  138.3569  164.2995 C.ar    1  UNL1        0.1399
     19 C         138.5864  137.9856  162.8587 C.ar    1  UNL1        0.0296
     20 C         138.0905  139.0083  161.8798 C.ar    1  UNL1        0.0020
     21 C         137.7848  140.4022  162.3417 C.ar    1  UNL1       -0.0022
     22 C         137.9749  140.7735  163.7825 C.ar    1  UNL1        0.0044
     23 C         138.4708  139.7508  164.7614 C.ar    1  UNL1        0.0273
@<TRIPOS>BOND
     1    17    18    1
     2    18    19   ar
     3    19    20   ar
     4    20    21   ar
     5    21    22   ar
     6    22    16    1
     7    16     1    1
     8     1     2   ar
     9     2     3   ar
    10     3     6    1
    11     6     8    1
    12     8     9    1
    13     9    10    1
    14    10    11    1
    15    11    12    1
    16    12    13    1
    17    13    14    1
    18    14    15    1
    19     3     4   ar
    20     4     5   ar
    21    22    23   ar
    22    23    18   ar
    23     5     1   ar
    24    15    10    1
    25     6     7    1
@<TRIPOS>MOLECULE
*****
 23 25 0 0 0
SMALL
GASTEIGER

@<TRIPOS>ATOM
      1 N         138.2549  142.9974  162.5984 N.ar    1  UNL1       -0.2244
      2 C         139.1644  143.8363  163.4463 C.ar    1  UNL1        0.1329
      3 C         139.9005  144.7805  162.5425 C.ar    1  UNL1        0.1709
      4 N         139.4458  144.5251  161.1360 N.ar    1  UNL1       -0.1138
      5 N         138.4287  143.4231  161.1706 N.ar    1  UNL1       -0.0622
      6 N         140.9134  145.8009  162.9701 N.pl3   1  UNL1       -0.3142
      7 H         140.7355  146.7592  162.8314 H       1  UNL1        0.1483
      8 C         142.1973  145.3612  163.6091 C.3     1  UNL1        0.1058
      9 C         142.8742  144.1053  163.1458 C.3     1  UNL1        0.0936
     10 N         142.6606  142.8201  163.8891 N.3     1  UNL1       -0.2712
     11 C         143.0134  142.7277  165.3441 C.3     1  UNL1        0.0721
     12 C         142.7997  141.4424  166.0873 C.3     1  UNL1        0.0174
     13 C         142.2333  140.2496  165.3756 C.3     1  UNL1        0.0029
     14 C         141.8805  140.3421  163.9206 C.3     1  UNL1        0.0174
     15 C         142.0942  141.6274  163.1774 C.3     1  UNL1        0.0721
     16 C         137.3332  141.9217  163.0917 C.3     1  UNL1        0.1557
     17 F         138.9735  139.1007  167.1354 F       1  UNL1       -0.2042
     18 C         138.7171  139.2346  165.6636 C.ar    1  UNL1        0.1399
     19 C         139.0245  138.0919  164.7417 C.ar    1  UNL1        0.0296
     20 C         138.7682  138.2258  163.2699 C.ar    1  UNL1        0.0020
     21 C         138.2044  139.5024  162.7199 C.ar    1  UNL1       -0.0022
     22 C         137.8970  140.6450  163.6417 C.ar    1  UNL1        0.0044
     23 C         138.1534  140.5111  165.1136 C.ar    1  UNL1        0.0273
@<TRIPOS>BOND
     1    17    18    1
     2    18    19   ar
     3    19    20   ar
     4    20    21   ar
     5    21    22   ar
     6    22    16    1
     7    16     1    1
     8     1     2   ar
     9     2     3   ar
    10     3     6    1
    11     6     8    1
    12     8     9    1
    13     9    10    1
    14    10    11    1
    15    11    12    1
    16    12    13    1
    17    13    14    1
    18    14    15    1
    19     3     4   ar
    20     4     5   ar
    21    22    23   ar
    22    23    18   ar
    23     5     1   ar
    24    15    10    1
    25     6     7    1
@<TRIPOS>MOLECULE
*****
 23 25 0 0 0
SMALL
GASTEIGER

@<TRIPOS>ATOM
      1 N         140.1856  142.4911  165.4623 N.ar    1  UNL1       -0.2244
      2 C         139.4884  141.3755  164.7417 C.ar    1  UNL1        0.1329
      3 C         138.2029  141.9139  164.1870 C.ar    1  UNL1        0.1709
      4 N         138.1057  143.3623  164.5648 N.ar    1  UNL1       -0.1138
      5 N         139.3310  143.7190  165.3529 N.ar    1  UNL1       -0.0622
      6 N         137.1922  141.1398  163.3938 N.pl3   1  UNL1       -0.3142
      7 H         136.2787  141.0223  163.7416 H       1  UNL1        0.1483
      8 C         137.5732  140.5446  162.0707 C.3     1  UNL1        0.1058
      9 C         137.8152  139.0688  161.9539 C.3     1  UNL1        0.0936
     10 N         138.9457  138.4323  162.7066 N.3     1  UNL1       -0.2712
     11 C         138.7540  138.0122  164.1337 C.3     1  UNL1        0.0721
     12 C         139.8846  137.3756  164.8864 C.3     1  UNL1        0.0174
     13 C         141.2068  137.1590  164.2119 C.3     1  UNL1        0.0029
     14 C         141.3984  137.5790  162.7847 C.3     1  UNL1        0.0174
     15 C         140.2679  138.2157  162.0321 C.3     1  UNL1        0.0721
     16 C         141.5056  142.3956  166.1682 C.3     1  UNL1        0.1557
     17 F         144.8689  139.3273  163.6634 F       1  UNL1       -0.2042
     18 C         143.9851  139.5932  164.8459 C.ar    1  UNL1        0.1399
     19 C         143.8993  138.5908  165.9585 C.ar    1  UNL1        0.0296
     20 C         143.0155  138.8567  167.1410 C.ar    1  UNL1        0.0020
     21 C         142.2177  140.1249  167.2109 C.ar    1  UNL1       -0.0022
     22 C         142.3035  141.1273  166.0983 C.ar    1  UNL1        0.0044
     23 C         143.1873  140.8614  164.9158 C.ar    1  UNL1        0.0273
@<TRIPOS>BOND
     1    17    18    1
     2    18    19   ar
     3    19    20   ar
     4    20    21   ar
     5    21    22   ar
     6    22    16    1
     7    16     1    1
     8     1     2   ar
     9     2     3   ar
    10     3     6    1
    11     6     8    1
    12     8     9    1
    13     9    10    1
    14    10    11    1
    15    11    12    1
    16    12    13    1
    17    13    14    1
    18    14    15    1
    19     3     4   ar
    20     4     5   ar
    21    22    23   ar
    22    23    18   ar
    23     5     1   ar
    24    15    10    1
    25     6     7    1
@<TRIPOS>MOLECULE
*****
 23 25 0 0 0
SMALL
GASTEIGER

@<TRIPOS>ATOM
      1 N         138.6931  142.3387  164.1347 N.ar    1  UNL1       -0.2244
      2 C         139.0442  140.8852  164.0160 C.ar    1  UNL1        0.1329
      3 C         138.1142  140.2638  163.0166 C.ar    1  UNL1        0.1709
      4 N         137.1882  141.3333  162.5176 N.ar    1  UNL1       -0.1138
      5 N         137.5461  142.6156  163.2087 N.ar    1  UNL1       -0.0622
      6 N         138.1106  138.8255  162.5908 N.pl3   1  UNL1       -0.3142
      7 H         137.5135  138.5279  161.8669 H       1  UNL1        0.1483
      8 C         139.0169  137.8406  163.2681 C.3     1  UNL1        0.1058
      9 C         140.4077  137.6220  162.7505 C.3     1  UNL1        0.0936
     10 N         141.5864  138.1158  163.5357 N.3     1  UNL1       -0.2712
     11 C         142.8200  138.5840  162.8223 C.3     1  UNL1        0.0721
     12 C         143.9987  139.0778  163.6076 C.3     1  UNL1        0.0174
     13 C         143.9438  139.1034  165.1064 C.3     1  UNL1        0.0029
     14 C         142.7102  138.6353  165.8199 C.3     1  UNL1        0.0174
     15 C         141.5315  138.1415  165.0345 C.3     1  UNL1        0.0721
     16 C         139.3702  143.3395  165.0235 C.3     1  UNL1        0.1557
     17 F         144.4964  142.5070  165.1953 F       1  UNL1       -0.2042
     18 C         143.1611  142.5339  165.8781 C.ar    1  UNL1        0.1399
     19 C         143.0536  142.1717  167.3297 C.ar    1  UNL1        0.0296
     20 C         141.7183  142.1987  168.0126 C.ar    1  UNL1        0.0020
     21 C         140.4906  142.5879  167.2439 C.ar    1  UNL1       -0.0022
     22 C         140.5981  142.9502  165.7923 C.ar    1  UNL1        0.0044
     23 C         141.9333  142.9232  165.1094 C.ar    1  UNL1        0.0273
@<TRIPOS>BOND
     1    17    18    1
     2    18    19   ar
     3    19    20   ar
     4    20    21   ar
     5    21    22   ar
     6    22    16    1
     7    16     1    1
     8     1     2   ar
     9     2     3   ar
    10     3     6    1
    11     6     8    1
    12     8     9    1
    13     9    10    1
    14    10    11    1
    15    11    12    1
    16    12    13    1
    17    13    14    1
    18    14    15    1
    19     3     4   ar
    20     4     5   ar
    21    22    23   ar
    22    23    18   ar
    23     5     1   ar
    24    15    10    1
    25     6     7    1
@<TRIPOS>MOLECULE
*****
 23 25 0 0 0
SMALL
GASTEIGER

@<TRIPOS>ATOM
      1 N         138.8243  143.9858  162.4924 N.ar    1  UNL1       -0.2244
      2 C         140.2835  143.6437  162.4328 C.ar    1  UNL1        0.1329
      3 C         141.0300  144.8708  162.0007 C.ar    1  UNL1        0.1709
      4 N         140.0322  145.9715  161.7931 N.ar    1  UNL1       -0.1138
      5 N         138.6689  145.4244  162.0971 N.ar    1  UNL1       -0.0622
      6 N         142.5139  144.9785  161.8096 N.pl3   1  UNL1       -0.3142
      7 H         142.8812  145.2039  160.9244 H       1  UNL1        0.1483
      8 C         143.4383  144.7428  162.9672 C.3     1  UNL1        0.1058
      9 C         144.4886  143.6752  162.8831 C.3     1  UNL1        0.0936
     10 N         144.2740  142.3566  163.5650 N.3     1  UNL1       -0.2712
     11 C         143.0304  142.1224  164.3704 C.3     1  UNL1        0.0721
     12 C         142.8159  140.8037  165.0523 C.3     1  UNL1        0.0174
     13 C         143.8449  139.7193  164.9289 C.3     1  UNL1        0.0029
     14 C         145.0884  139.9535  164.1235 C.3     1  UNL1        0.0174
     15 C         145.3030  141.2722  163.4416 C.3     1  UNL1        0.0721
     16 C         137.7151  143.0531  162.8794 C.3     1  UNL1        0.1557
     17 F         138.3194  137.9338  162.2252 F       1  UNL1       -0.2042
     18 C         138.3372  139.1407  163.1158 C.ar    1  UNL1        0.1399
     19 C         138.6749  138.9947  164.5700 C.ar    1  UNL1        0.0296
     20 C         138.6927  140.2015  165.4606 C.ar    1  UNL1        0.0020
     21 C         138.3728  141.5543  164.8971 C.ar    1  UNL1       -0.0022
     22 C         138.0351  141.7003  163.4430 C.ar    1  UNL1        0.0044
     23 C         138.0173  140.4934  162.5523 C.ar    1  UNL1        0.0273
@<TRIPOS>BOND
     1    17    18    1
     2    18    19   ar
     3    19    20   ar
     4    20    21   ar
     5    21    22   ar
     6    22    16    1
     7    16     1    1
     8     1     2   ar
     9     2     3   ar
    10     3     6    1
    11     6     8    1
    12     8     9    1
    13     9    10    1
    14    10    11    1
    15    11    12    1
    16    12    13    1
    17    13    14    1
    18    14    15    1
    19     3     4   ar
    20     4     5   ar
    21    22    23   ar
    22    23    18   ar
    23     5     1   ar
    24    15    10    1
    25     6     7    1
@<TRIPOS>MOLECULE
*****
 23 25 0 0 0
SMALL
GASTEIGER

@<TRIPOS>ATOM
      1 N         139.4573  143.3760  163.0040 N.ar    1  UNL1       -0.2244
      2 C         139.0424  141.9393  163.1214 C.ar    1  UNL1        0.1329
      3 C         137.9611  141.6852  162.1134 C.ar    1  UNL1        0.1709
      4 N         137.7076  142.9649  161.3730 N.ar    1  UNL1       -0.1138
      5 N         138.6323  144.0098  161.9234 N.ar    1  UNL1       -0.0622
      6 N         137.2568  140.3805  161.8858 N.pl3   1  UNL1       -0.3142
      7 H         136.2883  140.3092  162.0476 H       1  UNL1        0.1483
      8 C         138.0281  139.1846  161.4116 C.3     1  UNL1        0.1058
      9 C         138.4038  138.1022  162.3798 C.3     1  UNL1        0.0936
     10 N         139.3029  138.4123  163.5396 N.3     1  UNL1       -0.2712
     11 C         140.7917  138.3252  163.3786 C.3     1  UNL1        0.0721
     12 C         141.6908  138.6354  164.5386 C.3     1  UNL1        0.0174
     13 C         141.1011  139.0326  165.8594 C.3     1  UNL1        0.0029
     14 C         139.6124  139.1196  166.0203 C.3     1  UNL1        0.0174
     15 C         138.7132  138.8095  164.8604 C.3     1  UNL1        0.0721
     16 C         140.5120  144.0589  163.8233 C.3     1  UNL1        0.1557
     17 F         139.9823  142.2313  168.6586 F       1  UNL1       -0.2042
     18 C         140.8280  142.4565  167.4403 C.ar    1  UNL1        0.1399
     19 C         142.2544  141.9930  167.4214 C.ar    1  UNL1        0.0296
     20 C         143.1001  142.2182  166.2031 C.ar    1  UNL1        0.0020
     21 C         142.5193  142.9068  165.0038 C.ar    1  UNL1       -0.0022
     22 C         141.0928  143.3702  165.0227 C.ar    1  UNL1        0.0044
     23 C         140.2472  143.1451  166.2410 C.ar    1  UNL1        0.0273
@<TRIPOS>BOND
     1    17    18    1
     2    18    19   ar
     3    19    20   ar
     4    20    21   ar
     5    21    22   ar
     6    22    16    1
     7    16     1    1
     8     1     2   ar
     9     2     3   ar
    10     3     6    1
    11     6     8    1
    12     8     9    1
    13     9    10    1
    14    10    11    1
    15    11    12    1
    16    12    13    1
    17    13    14    1
    18    14    15    1
    19     3     4   ar
    20     4     5   ar
    21    22    23   ar
    22    23    18   ar
    23     5     1   ar
    24    15    10    1
    25     6     7    1
@<TRIPOS>MOLECULE
*****
 23 25 0 0 0
SMALL
GASTEIGER

@<TRIPOS>ATOM
      1 N         142.9807  142.6010  164.3685 N.ar    1  UNL1       -0.2244
      2 C         142.0852  143.1338  163.2896 C.ar    1  UNL1        0.1329
      3 C         142.8818  144.0958  162.4590 C.ar    1  UNL1        0.1709
      4 N         144.2698  144.1576  163.0246 N.ar    1  UNL1       -0.1138
      5 N         144.3309  143.2337  164.2048 N.ar    1  UNL1       -0.0622
      6 N         142.3789  144.8617  161.2714 N.pl3   1  UNL1       -0.3142
      7 H         142.8236  145.6971  161.0000 H       1  UNL1        0.1483
      8 C         141.1984  144.3548  160.4972 C.3     1  UNL1        0.1058
      9 C         139.8198  144.8485  160.8226 C.3     1  UNL1        0.0936
     10 N         139.1056  144.3327  162.0365 N.3     1  UNL1       -0.2712
     11 C         139.1914  145.0829  163.3326 C.3     1  UNL1        0.0721
     12 C         138.4771  144.5670  164.5465 C.3     1  UNL1        0.0174
     13 C         137.6770  143.3008  164.4643 C.3     1  UNL1        0.0029
     14 C         137.5912  142.5506  163.1683 C.3     1  UNL1        0.0174
     15 C         138.3055  143.0665  161.9544 C.3     1  UNL1        0.0721
     16 C         142.5940  141.6095  165.4255 C.3     1  UNL1        0.1557
     17 F         143.8757  142.6646  170.3494 F       1  UNL1       -0.2042
     18 C         142.8493  142.6127  169.2568 C.ar    1  UNL1        0.1399
     19 C         141.4373  143.0364  169.5336 C.ar    1  UNL1        0.0296
     20 C         140.4108  142.9844  168.4410 C.ar    1  UNL1        0.0020
     21 C         140.7964  142.5088  167.0717 C.ar    1  UNL1       -0.0022
     22 C         142.2084  142.0851  166.7949 C.ar    1  UNL1        0.0044
     23 C         143.2348  142.1371  167.8875 C.ar    1  UNL1        0.0273
@<TRIPOS>BOND
     1    17    18    1
     2    18    19   ar
     3    19    20   ar
     4    20    21   ar
     5    21    22   ar
     6    22    16    1
     7    16     1    1
     8     1     2   ar
     9     2     3   ar
    10     3     6    1
    11     6     8    1
    12     8     9    1
    13     9    10    1
    14    10    11    1
    15    11    12    1
    16    12    13    1
    17    13    14    1
    18    14    15    1
    19     3     4   ar
    20     4     5   ar
    21    22    23   ar
    22    23    18   ar
    23     5     1   ar
    24    15    10    1
    25     6     7    1
@<TRIPOS>MOLECULE
*****
 23 25 0 0 0
SMALL
GASTEIGER

@<TRIPOS>ATOM
      1 N         142.0405  143.6515  164.3555 N.ar    1  UNL1       -0.2244
      2 C         140.7182  142.9922  164.0972 C.ar    1  UNL1        0.1329
      3 C         139.8420  143.9759  163.3799 C.ar    1  UNL1        0.1709
      4 N         140.6228  145.2433  163.1950 N.ar    1  UNL1       -0.1138
      5 N         141.9815  145.0428  163.7979 N.ar    1  UNL1       -0.0622
      6 N         138.4324  143.7347  162.9271 N.pl3   1  UNL1       -0.3142
      7 H         138.0618  144.2508  162.1751 H       1  UNL1        0.1483
      8 C         137.5875  142.7071  163.6201 C.3     1  UNL1        0.1058
      9 C         137.4272  141.3408  163.0223 C.3     1  UNL1        0.0936
     10 N         138.0614  140.1535  163.6840 N.3     1  UNL1       -0.2712
     11 C         138.3804  138.9281  162.8797 C.3     1  UNL1        0.0721
     12 C         139.0146  137.7408  163.5415 C.3     1  UNL1        0.0174
     13 C         139.3299  137.7788  165.0075 C.3     1  UNL1        0.0029
     14 C         139.0110  139.0042  165.8118 C.3     1  UNL1        0.0174
     15 C         138.3767  140.1915  165.1500 C.3     1  UNL1        0.0721
     16 C         143.2155  143.0289  165.0495 C.3     1  UNL1        0.1557
     17 F         142.8304  137.8916  165.7280 F       1  UNL1       -0.2042
     18 C         142.8211  139.2809  166.2934 C.ar    1  UNL1        0.1399
     19 C         142.6099  139.4909  167.7635 C.ar    1  UNL1        0.0296
     20 C         142.6006  140.8802  168.3290 C.ar    1  UNL1        0.0020
     21 C         142.8025  142.0595  167.4244 C.ar    1  UNL1       -0.0022
     22 C         143.0136  141.8495  165.9542 C.ar    1  UNL1        0.0044
     23 C         143.0229  140.4602  165.3888 C.ar    1  UNL1        0.0273
@<TRIPOS>BOND
     1    17    18    1
     2    18    19   ar
     3    19    20   ar
     4    20    21   ar
     5    21    22   ar
     6    22    16    1
     7    16     1    1
     8     1     2   ar
     9     2     3   ar
    10     3     6    1
    11     6     8    1
    12     8     9    1
    13     9    10    1
    14    10    11    1
    15    11    12    1
    16    12    13    1
    17    13    14    1
    18    14    15    1
    19     3     4   ar
    20     4     5   ar
    21    22    23   ar
    22    23    18   ar
    23     5     1   ar
    24    15    10    1
    25     6     7    1
