@<TRIPOS>MOLECULE
*****
 30 32 0 0 0
SMALL
GASTEIGER

@<TRIPOS>ATOM
      1 N         139.8648  138.9574  164.3207 N.ar    1  UNL1       -0.2859
      2 C         140.8047  140.0991  164.0695 C.ar    1  UNL1        0.1318
      3 C         141.1325  141.0579  165.1754 C.ar    1  UNL1        0.0261
      4 C         140.5203  140.8751  166.5326 C.ar    1  UNL1        0.0097
      5 C         140.8481  141.8340  167.6385 C.ar    1  UNL1        0.0371
      6 C         140.2359  141.6512  168.9956 C.ar    1  UNL1        0.1387
      7 C         139.2960  140.5095  169.2468 C.ar    1  UNL1        0.0371
      8 C         138.9683  139.5506  168.1409 C.ar    1  UNL1        0.0078
      9 C         139.5804  139.7334  166.7838 C.ar    1  UNL1        0.0565
     10 C         139.2527  138.7745  165.6778 C.ar    1  UNL1        0.2613
     11 O         138.3128  137.6328  165.9290 O.2     1  UNL1       -0.2670
     12 C         142.0724  142.1996  164.9242 C.ar    1  UNL1        0.0043
     13 C         143.5317  142.0527  165.2381 C.ar    1  UNL1        0.0002
     14 C         144.4716  143.1944  164.9869 C.ar    1  UNL1        0.0023
     15 C         143.9522  144.4830  164.4218 C.ar    1  UNL1        0.0296
     16 C         142.4927  144.6301  164.1078 C.ar    1  UNL1        0.1401
     17 F         141.9733  145.9188  163.5427 F       1  UNL1       -0.2042
     18 C         141.5528  143.4884  164.3590 C.ar    1  UNL1        0.0297
     19 C         141.4169  140.2819  162.7122 C.1     1  UNL1        0.1180
     20 N         142.0290  140.4646  161.3551 N.1     1  UNL1       -0.1893
     21 O         140.5637  142.6101  170.1016 O.3     1  UNL1       -0.4714
     22 C         140.4121  144.0864  169.8838 C.3     1  UNL1        0.2525
     23 C         139.5370  137.9985  163.2146 C.3     1  UNL1        0.1270
     24 C         138.3308  138.2305  162.3538 C.3     1  UNL1        0.0971
     25 N         138.4700  138.9525  161.0464 N.3     1  UNL1       -0.2677
     26 C         139.4052  138.4296  159.9967 C.3     1  UNL1        0.0897
     27 C         137.6740  140.1974  160.7887 C.3     1  UNL1        0.1046
     28 C         138.0668  141.4881  161.4445 C.3     1  UNL1        0.1595
     29 C         137.6889  141.9804  163.9673 C.3     1  UNL1        0.1742
     30 O         137.2211  142.0584  162.5442 O.3     1  UNL1       -0.3496
@<TRIPOS>BOND
     1    29    30    1
     2    30    28    1
     3    28    27    1
     4    27    25    1
     5    25    26    1
     6    25    24    1
     7    24    23    1
     8    23     1    1
     9     1     2   ar
    10     2    19    1
    11    19    20    3
    12     2     3   ar
    13     3    12    1
    14    12    13   ar
    15    13    14   ar
    16    14    15   ar
    17    15    16   ar
    18    16    17    1
    19    16    18   ar
    20     3     4   ar
    21     4     5   ar
    22     5     6   ar
    23     6    21    1
    24    21    22    1
    25     6     7   ar
    26     7     8   ar
    27     8     9   ar
    28     9    10   ar
    29    10    11    2
    30    10     1   ar
    31    18    12   ar
    32     9     4   ar
@<TRIPOS>MOLECULE
*****
 30 32 0 0 0
SMALL
GASTEIGER

@<TRIPOS>ATOM
      1 N         138.9476  139.9409  164.4402 N.ar    1  UNL1       -0.2859
      2 C         139.9651  140.9863  164.0914 C.ar    1  UNL1        0.1318
      3 C         140.6893  141.7209  165.1804 C.ar    1  UNL1        0.0261
      4 C         140.3958  141.4101  166.6183 C.ar    1  UNL1        0.0097
      5 C         141.1199  142.1447  167.7073 C.ar    1  UNL1        0.0371
      6 C         140.8265  141.8338  169.1451 C.ar    1  UNL1        0.1387
      7 C         139.8090  140.7884  169.4938 C.ar    1  UNL1        0.0371
      8 C         139.0849  140.0538  168.4048 C.ar    1  UNL1        0.0078
      9 C         139.3783  140.3646  166.9671 C.ar    1  UNL1        0.0565
     10 C         138.6542  139.6300  165.8780 C.ar    1  UNL1        0.2613
     11 O         137.6366  138.5846  166.2267 O.2     1  UNL1       -0.2670
     12 C         141.7068  142.7664  164.8317 C.ar    1  UNL1        0.0043
     13 C         141.2611  144.1255  164.3798 C.ar    1  UNL1        0.0002
     14 C         142.2787  145.1709  164.0310 C.ar    1  UNL1        0.0023
     15 C         143.7419  144.8573  164.1341 C.ar    1  UNL1        0.0296
     16 C         144.1876  143.4982  164.5861 C.ar    1  UNL1        0.1401
     17 F         145.6508  143.1846  164.6892 F       1  UNL1       -0.2042
     18 C         143.1700  142.4527  164.9348 C.ar    1  UNL1        0.0297
     19 C         140.2586  141.2972  162.6536 C.1     1  UNL1        0.1180
     20 N         140.5520  141.6080  161.2158 N.1     1  UNL1       -0.1893
     21 O         141.5506  142.5685  170.2342 O.3     1  UNL1       -0.4714
     22 C         143.0399  142.7342  170.1652 C.3     1  UNL1        0.2525
     23 C         138.2235  139.2063  163.3511 C.3     1  UNL1        0.1270
     24 C         138.7308  137.8763  162.8779 C.3     1  UNL1        0.0971
     25 N         140.1928  137.6863  162.6018 N.3     1  UNL1       -0.2677
     26 C         140.7505  138.0209  161.2502 C.3     1  UNL1        0.0897
     27 C         141.0971  137.1617  163.6774 C.3     1  UNL1        0.1046
     28 C         142.1186  138.0636  164.3045 C.3     1  UNL1        0.1595
     29 C         143.2527  138.7997  166.5230 C.3     1  UNL1        0.1742
     30 O         142.0213  138.4086  165.7610 O.3     1  UNL1       -0.3496
@<TRIPOS>BOND
     1    29    30    1
     2    30    28    1
     3    28    27    1
     4    27    25    1
     5    25    26    1
     6    25    24    1
     7    24    23    1
     8    23     1    1
     9     1     2   ar
    10     2    19    1
    11    19    20    3
    12     2     3   ar
    13     3    12    1
    14    12    13   ar
    15    13    14   ar
    16    14    15   ar
    17    15    16   ar
    18    16    17    1
    19    16    18   ar
    20     3     4   ar
    21     4     5   ar
    22     5     6   ar
    23     6    21    1
    24    21    22    1
    25     6     7   ar
    26     7     8   ar
    27     8     9   ar
    28     9    10   ar
    29    10    11    2
    30    10     1   ar
    31    18    12   ar
    32     9     4   ar
@<TRIPOS>MOLECULE
*****
 30 32 0 0 0
SMALL
GASTEIGER

@<TRIPOS>ATOM
      1 N         141.2162  144.3529  163.5354 N.ar    1  UNL1       -0.2859
      2 C         140.6358  143.7745  164.7918 C.ar    1  UNL1        0.1318
      3 C         141.2367  142.5403  165.3966 C.ar    1  UNL1        0.0261
      4 C         142.4180  141.8845  164.7449 C.ar    1  UNL1        0.0097
      5 C         143.0189  140.6504  165.3497 C.ar    1  UNL1        0.0371
      6 C         144.2001  139.9947  164.6980 C.ar    1  UNL1        0.1387
      7 C         144.7804  140.5731  163.4416 C.ar    1  UNL1        0.0371
      8 C         144.1795  141.8072  162.8368 C.ar    1  UNL1        0.0078
      9 C         142.9983  142.4630  163.4885 C.ar    1  UNL1        0.0565
     10 C         142.3974  143.6972  162.8837 C.ar    1  UNL1        0.2613
     11 O         142.9777  144.2756  161.6273 O.2     1  UNL1       -0.2670
     12 C         140.6564  141.9619  166.6530 C.ar    1  UNL1        0.0043
     13 C         140.9622  142.5916  167.9796 C.ar    1  UNL1        0.0002
     14 C         140.3819  142.0132  169.2360 C.ar    1  UNL1        0.0023
     15 C         139.4957  140.8050  169.1659 C.ar    1  UNL1        0.0296
     16 C         139.1898  140.1752  167.8393 C.ar    1  UNL1        0.1401
     17 F         138.3036  138.9671  167.7691 F       1  UNL1       -0.2042
     18 C         139.7701  140.7536  166.5828 C.ar    1  UNL1        0.0297
     19 C         139.4546  144.4302  165.4435 C.1     1  UNL1        0.1180
     20 N         138.2734  145.0860  166.0952 N.1     1  UNL1       -0.1893
     21 O         144.8010  138.7604  165.3027 O.3     1  UNL1       -0.4714
     22 C         144.0784  138.0338  166.3981 C.3     1  UNL1        0.2525
     23 C         140.6152  145.5871  162.9306 C.3     1  UNL1        0.1270
     24 C         139.5055  145.4673  161.9286 C.3     1  UNL1        0.0971
     25 N         139.0609  144.1135  161.4602 N.3     1  UNL1       -0.2677
     26 C         139.6976  143.4910  160.2530 C.3     1  UNL1        0.0897
     27 C         137.9796  143.3821  162.1989 C.3     1  UNL1        0.1046
     28 C         137.9778  141.8825  162.2346 C.3     1  UNL1        0.1595
     29 C         139.8644  140.1567  162.6950 C.3     1  UNL1        0.1742
     30 O         138.8647  141.1542  163.2004 O.3     1  UNL1       -0.3496
@<TRIPOS>BOND
     1    29    30    1
     2    30    28    1
     3    28    27    1
     4    27    25    1
     5    25    26    1
     6    25    24    1
     7    24    23    1
     8    23     1    1
     9     1     2   ar
    10     2    19    1
    11    19    20    3
    12     2     3   ar
    13     3    12    1
    14    12    13   ar
    15    13    14   ar
    16    14    15   ar
    17    15    16   ar
    18    16    17    1
    19    16    18   ar
    20     3     4   ar
    21     4     5   ar
    22     5     6   ar
    23     6    21    1
    24    21    22    1
    25     6     7   ar
    26     7     8   ar
    27     8     9   ar
    28     9    10   ar
    29    10    11    2
    30    10     1   ar
    31    18    12   ar
    32     9     4   ar
@<TRIPOS>MOLECULE
*****
 30 32 0 0 0
SMALL
GASTEIGER

@<TRIPOS>ATOM
      1 N         143.5583  141.5889  163.3604 N.ar    1  UNL1       -0.2859
      2 C         143.3544  141.9298  164.8068 C.ar    1  UNL1        0.1318
      3 C         142.2776  141.2443  165.5944 C.ar    1  UNL1        0.0261
      4 C         141.4045  140.2177  164.9356 C.ar    1  UNL1        0.0097
      5 C         140.3276  139.5322  165.7232 C.ar    1  UNL1        0.0371
      6 C         139.4546  138.5057  165.0643 C.ar    1  UNL1        0.1387
      7 C         139.6584  138.1648  163.6179 C.ar    1  UNL1        0.0371
      8 C         140.7352  138.8504  162.8303 C.ar    1  UNL1        0.0078
      9 C         141.6083  139.8768  163.4891 C.ar    1  UNL1        0.0565
     10 C         142.6852  140.5624  162.7015 C.ar    1  UNL1        0.2613
     11 O         142.8890  140.2215  161.2550 O.2     1  UNL1       -0.2670
     12 C         142.0738  141.5852  167.0409 C.ar    1  UNL1        0.0043
     13 C         142.8238  140.8347  168.1012 C.ar    1  UNL1        0.0002
     14 C         142.6200  141.1757  169.5476 C.ar    1  UNL1        0.0023
     15 C         141.6662  142.2670  169.9338 C.ar    1  UNL1        0.0296
     16 C         140.9161  143.0175  168.8735 C.ar    1  UNL1        0.1401
     17 F         139.9623  144.1089  169.2596 F       1  UNL1       -0.2042
     18 C         141.1199  142.6766  167.4270 C.ar    1  UNL1        0.0297
     19 C         144.2276  142.9563  165.4656 C.1     1  UNL1        0.1180
     20 N         145.1006  143.9828  166.1244 N.1     1  UNL1       -0.1893
     21 O         138.3777  137.8201  165.8520 O.3     1  UNL1       -0.4714
     22 C         137.6974  138.5411  166.9777 C.3     1  UNL1        0.2525
     23 C         144.6352  142.2745  162.5727 C.3     1  UNL1        0.1270
     24 C         144.3629  143.6003  161.9261 C.3     1  UNL1        0.0971
     25 N         142.9509  144.0799  161.7643 N.3     1  UNL1       -0.2677
     26 C         142.1848  143.7498  160.5176 C.3     1  UNL1        0.0897
     27 C         142.3049  144.8896  162.8492 C.3     1  UNL1        0.1046
     28 C         140.9562  144.4974  163.3758 C.3     1  UNL1        0.1595
     29 C         139.7688  146.2095  161.8239 C.3     1  UNL1        0.1742
     30 O         139.7484  145.3165  163.0288 O.3     1  UNL1       -0.3496
@<TRIPOS>BOND
     1    29    30    1
     2    30    28    1
     3    28    27    1
     4    27    25    1
     5    25    26    1
     6    25    24    1
     7    24    23    1
     8    23     1    1
     9     1     2   ar
    10     2    19    1
    11    19    20    3
    12     2     3   ar
    13     3    12    1
    14    12    13   ar
    15    13    14   ar
    16    14    15   ar
    17    15    16   ar
    18    16    17    1
    19    16    18   ar
    20     3     4   ar
    21     4     5   ar
    22     5     6   ar
    23     6    21    1
    24    21    22    1
    25     6     7   ar
    26     7     8   ar
    27     8     9   ar
    28     9    10   ar
    29    10    11    2
    30    10     1   ar
    31    18    12   ar
    32     9     4   ar
@<TRIPOS>MOLECULE
*****
 30 32 0 0 0
SMALL
GASTEIGER

@<TRIPOS>ATOM
      1 N         141.0925  144.6467  160.9428 N.ar    1  UNL1       -0.2859
      2 C         142.1396  143.6441  161.3282 C.ar    1  UNL1        0.1318
      3 C         142.1581  143.0746  162.7157 C.ar    1  UNL1        0.0261
      4 C         141.1295  143.5076  163.7180 C.ar    1  UNL1        0.0097
      5 C         141.1480  142.9381  165.1055 C.ar    1  UNL1        0.0371
      6 C         140.1194  143.3711  166.1077 C.ar    1  UNL1        0.1387
      7 C         139.0722  144.3737  165.7223 C.ar    1  UNL1        0.0371
      8 C         139.0537  144.9432  164.3348 C.ar    1  UNL1        0.0078
      9 C         140.0823  144.5102  163.3326 C.ar    1  UNL1        0.0565
     10 C         140.0639  145.0797  161.9450 C.ar    1  UNL1        0.2613
     11 O         139.0168  146.0822  161.5597 O.2     1  UNL1       -0.2670
     12 C         143.2052  142.0721  163.1010 C.ar    1  UNL1        0.0043
     13 C         144.5125  142.5350  163.6724 C.ar    1  UNL1        0.0002
     14 C         145.5596  141.5325  164.0577 C.ar    1  UNL1        0.0023
     15 C         145.2994  140.0670  163.8717 C.ar    1  UNL1        0.0296
     16 C         143.9920  139.6040  163.3003 C.ar    1  UNL1        0.1401
     17 F         143.7318  138.1386  163.1142 F       1  UNL1       -0.2042
     18 C         142.9449  140.6065  162.9149 C.ar    1  UNL1        0.0297
     19 C         143.1682  143.2111  160.3259 C.1     1  UNL1        0.1180
     20 N         144.1968  142.7782  159.3236 N.1     1  UNL1       -0.1893
     21 O         140.1378  142.8016  167.4953 O.3     1  UNL1       -0.4714
     22 C         140.1617  141.3153  167.6956 C.3     1  UNL1        0.2525
     23 C         141.0740  145.2162  159.5552 C.3     1  UNL1        0.1270
     24 C         140.1595  144.6349  158.5180 C.3     1  UNL1        0.0971
     25 N         139.8118  143.1763  158.5575 N.3     1  UNL1       -0.2677
     26 C         140.7415  142.1670  157.9518 C.3     1  UNL1        0.0897
     27 C         138.5343  142.7270  159.2026 C.3     1  UNL1        0.1046
     28 C         138.5651  142.0741  160.5527 C.3     1  UNL1        0.1595
     29 C         137.5671  141.8042  162.9362 C.3     1  UNL1        0.1742
     30 O         137.6450  142.5504  161.6373 O.3     1  UNL1       -0.3496
@<TRIPOS>BOND
     1    29    30    1
     2    30    28    1
     3    28    27    1
     4    27    25    1
     5    25    26    1
     6    25    24    1
     7    24    23    1
     8    23     1    1
     9     1     2   ar
    10     2    19    1
    11    19    20    3
    12     2     3   ar
    13     3    12    1
    14    12    13   ar
    15    13    14   ar
    16    14    15   ar
    17    15    16   ar
    18    16    17    1
    19    16    18   ar
    20     3     4   ar
    21     4     5   ar
    22     5     6   ar
    23     6    21    1
    24    21    22    1
    25     6     7   ar
    26     7     8   ar
    27     8     9   ar
    28     9    10   ar
    29    10    11    2
    30    10     1   ar
    31    18    12   ar
    32     9     4   ar
@<TRIPOS>MOLECULE
*****
 30 32 0 0 0
SMALL
GASTEIGER

@<TRIPOS>ATOM
      1 N         140.1821  140.3192  167.2955 N.ar    1  UNL1       -0.2859
      2 C         141.4465  140.8311  166.6715 C.ar    1  UNL1        0.1318
      3 C         141.8073  140.4312  165.2716 C.ar    1  UNL1        0.0261
      4 C         140.9037  139.5193  164.4956 C.ar    1  UNL1        0.0097
      5 C         141.2646  139.1193  163.0957 C.ar    1  UNL1        0.0371
      6 C         140.3610  138.2074  162.3198 C.ar    1  UNL1        0.1387
      7 C         139.0967  137.6955  162.9438 C.ar    1  UNL1        0.0371
      8 C         138.7358  138.0955  164.3437 C.ar    1  UNL1        0.0078
      9 C         139.6394  139.0074  165.1196 C.ar    1  UNL1        0.0565
     10 C         139.2786  139.4074  166.5196 C.ar    1  UNL1        0.2613
     11 O         138.0142  138.8955  167.1436 O.2     1  UNL1       -0.2670
     12 C         143.0717  140.9431  164.6476 C.ar    1  UNL1        0.0043
     13 C         144.3164  140.1067  164.6807 C.ar    1  UNL1        0.0002
     14 C         145.5807  140.6186  164.0568 C.ar    1  UNL1        0.0023
     15 C         145.6004  141.9668  163.3997 C.ar    1  UNL1        0.0296
     16 C         144.3556  142.8033  163.3666 C.ar    1  UNL1        0.1401
     17 F         144.3753  144.1515  162.7095 F       1  UNL1       -0.2042
     18 C         143.0912  142.2914  163.9905 C.ar    1  UNL1        0.0297
     19 C         142.3500  141.7430  167.4475 C.1     1  UNL1        0.1180
     20 N         143.2535  142.6548  168.2235 N.1     1  UNL1       -0.1893
     21 O         140.7218  137.8074  160.9198 O.3     1  UNL1       -0.4714
     22 C         142.1394  137.9329  160.4457 C.3     1  UNL1        0.2525
     23 C         139.8213  140.7192  168.6955 C.3     1  UNL1        0.1270
     24 C         140.4085  139.9805  169.8615 C.3     1  UNL1        0.0971
     25 N         141.5846  140.5521  170.5962 N.3     1  UNL1       -0.2677
     26 C         141.4483  141.8499  171.3359 C.3     1  UNL1        0.0897
     27 C         142.8971  139.8260  170.5912 C.3     1  UNL1        0.1046
     28 C         143.0057  138.4775  169.9432 C.3     1  UNL1        0.1595
     29 C         144.3411  136.4304  170.8238 C.3     1  UNL1        0.1742
     30 O         143.0802  137.2420  170.7905 O.3     1  UNL1       -0.3496
@<TRIPOS>BOND
     1    29    30    1
     2    30    28    1
     3    28    27    1
     4    27    25    1
     5    25    26    1
     6    25    24    1
     7    24    23    1
     8    23     1    1
     9     1     2   ar
    10     2    19    1
    11    19    20    3
    12     2     3   ar
    13     3    12    1
    14    12    13   ar
    15    13    14   ar
    16    14    15   ar
    17    15    16   ar
    18    16    17    1
    19    16    18   ar
    20     3     4   ar
    21     4     5   ar
    22     5     6   ar
    23     6    21    1
    24    21    22    1
    25     6     7   ar
    26     7     8   ar
    27     8     9   ar
    28     9    10   ar
    29    10    11    2
    30    10     1   ar
    31    18    12   ar
    32     9     4   ar
@<TRIPOS>MOLECULE
*****
 30 32 0 0 0
SMALL
GASTEIGER

@<TRIPOS>ATOM
      1 N         143.5239  141.0012  163.2263 N.ar    1  UNL1       -0.2859
      2 C         142.2316  141.7626  163.2409 C.ar    1  UNL1        0.1318
      3 C         141.3173  141.6656  164.4261 C.ar    1  UNL1        0.0261
      4 C         141.6953  140.8072  165.5967 C.ar    1  UNL1        0.0097
      5 C         140.7811  140.7102  166.7819 C.ar    1  UNL1        0.0371
      6 C         141.1591  139.8519  167.9524 C.ar    1  UNL1        0.1387
      7 C         142.4514  139.0905  167.9378 C.ar    1  UNL1        0.0371
      8 C         143.3657  139.1875  166.7527 C.ar    1  UNL1        0.0078
      9 C         142.9877  140.0458  165.5821 C.ar    1  UNL1        0.0565
     10 C         143.9020  140.1429  164.3969 C.ar    1  UNL1        0.2613
     11 O         145.1943  139.3815  164.3823 O.2     1  UNL1       -0.2670
     12 C         140.0250  142.4270  164.4406 C.ar    1  UNL1        0.0043
     13 C         138.8655  141.9523  163.6158 C.ar    1  UNL1        0.0002
     14 C         137.5732  142.7137  163.6304 C.ar    1  UNL1        0.0023
     15 C         137.4404  143.9497  164.4698 C.ar    1  UNL1        0.0296
     16 C         138.5999  144.4244  165.2947 C.ar    1  UNL1        0.1401
     17 F         138.4670  145.6604  166.1340 F       1  UNL1       -0.2042
     18 C         139.8922  143.6630  165.2801 C.ar    1  UNL1        0.0297
     19 C         141.8536  142.6210  162.0702 C.1     1  UNL1        0.1180
     20 N         141.4756  143.4793  160.8996 N.1     1  UNL1       -0.1893
     21 O         140.2448  139.7549  169.1377 O.3     1  UNL1       -0.4714
     22 C         140.7847  139.9679  170.5208 C.3     1  UNL1        0.2525
     23 C         144.4382  141.0982  162.0411 C.3     1  UNL1        0.1270
     24 C         144.2318  140.1982  160.8590 C.3     1  UNL1        0.0971
     25 N         143.3630  138.9820  160.9850 N.3     1  UNL1       -0.2677
     26 C         143.9553  137.6810  161.4397 C.3     1  UNL1        0.0897
     27 C         141.9020  139.0666  160.6564 C.3     1  UNL1        0.1046
     28 C         140.9064  138.2800  161.4565 C.3     1  UNL1        0.1595
     29 C         141.0835  137.2351  163.8285 C.3     1  UNL1        0.1742
     30 O         140.8580  138.4285  162.9483 O.3     1  UNL1       -0.3496
@<TRIPOS>BOND
     1    29    30    1
     2    30    28    1
     3    28    27    1
     4    27    25    1
     5    25    26    1
     6    25    24    1
     7    24    23    1
     8    23     1    1
     9     1     2   ar
    10     2    19    1
    11    19    20    3
    12     2     3   ar
    13     3    12    1
    14    12    13   ar
    15    13    14   ar
    16    14    15   ar
    17    15    16   ar
    18    16    17    1
    19    16    18   ar
    20     3     4   ar
    21     4     5   ar
    22     5     6   ar
    23     6    21    1
    24    21    22    1
    25     6     7   ar
    26     7     8   ar
    27     8     9   ar
    28     9    10   ar
    29    10    11    2
    30    10     1   ar
    31    18    12   ar
    32     9     4   ar
@<TRIPOS>MOLECULE
*****
 30 32 0 0 0
SMALL
GASTEIGER

@<TRIPOS>ATOM
      1 N         139.5935  138.8728  164.1418 N.ar    1  UNL1       -0.2859
      2 C         140.9093  139.4878  163.7674 C.ar    1  UNL1        0.1318
      3 C         141.6935  140.2599  164.7867 C.ar    1  UNL1        0.0261
      4 C         141.1617  140.4170  166.1805 C.ar    1  UNL1        0.0097
      5 C         141.9458  141.1891  167.1998 C.ar    1  UNL1        0.0371
      6 C         141.4141  141.3461  168.5935 C.ar    1  UNL1        0.1387
      7 C         140.0982  140.7311  168.9679 C.ar    1  UNL1        0.0371
      8 C         139.3141  139.9590  167.9486 C.ar    1  UNL1        0.0078
      9 C         139.8459  139.8020  166.5549 C.ar    1  UNL1        0.0565
     10 C         139.0617  139.0298  165.5355 C.ar    1  UNL1        0.2613
     11 O         137.7459  138.4148  165.9100 O.2     1  UNL1       -0.2670
     12 C         143.0093  140.8750  164.4122 C.ar    1  UNL1        0.0043
     13 C         144.2712  140.0717  164.5228 C.ar    1  UNL1        0.0002
     14 C         145.5871  140.6867  164.1484 C.ar    1  UNL1        0.0023
     15 C         145.6411  142.1051  163.6633 C.ar    1  UNL1        0.0296
     16 C         144.3791  142.9085  163.5527 C.ar    1  UNL1        0.1401
     17 F         144.4331  144.3268  163.0677 F       1  UNL1       -0.2042
     18 C         143.0633  142.2934  163.9272 C.ar    1  UNL1        0.0297
     19 C         141.4411  139.3308  162.3735 C.1     1  UNL1        0.1180
     20 N         141.9728  139.1737  160.9798 N.1     1  UNL1       -0.1893
     21 O         142.1982  142.1183  169.6129 O.3     1  UNL1       -0.4714
     22 C         143.6927  142.1942  169.5094 C.3     1  UNL1        0.2525
     23 C         138.8094  138.1007  163.1224 C.3     1  UNL1        0.1270
     24 C         137.8005  138.8030  162.2629 C.3     1  UNL1        0.0971
     25 N         137.9363  140.2727  161.9956 N.3     1  UNL1       -0.2677
     26 C         137.3749  141.2670  162.9684 C.3     1  UNL1        0.0897
     27 C         138.6334  140.7482  160.7555 C.3     1  UNL1        0.1046
     28 C         139.2311  142.1233  160.7115 C.3     1  UNL1        0.1595
     29 C         139.3097  143.3999  158.4502 C.3     1  UNL1        0.1742
     30 O         138.6662  143.1573  159.7832 O.3     1  UNL1       -0.3496
@<TRIPOS>BOND
     1    29    30    1
     2    30    28    1
     3    28    27    1
     4    27    25    1
     5    25    26    1
     6    25    24    1
     7    24    23    1
     8    23     1    1
     9     1     2   ar
    10     2    19    1
    11    19    20    3
    12     2     3   ar
    13     3    12    1
    14    12    13   ar
    15    13    14   ar
    16    14    15   ar
    17    15    16   ar
    18    16    17    1
    19    16    18   ar
    20     3     4   ar
    21     4     5   ar
    22     5     6   ar
    23     6    21    1
    24    21    22    1
    25     6     7   ar
    26     7     8   ar
    27     8     9   ar
    28     9    10   ar
    29    10    11    2
    30    10     1   ar
    31    18    12   ar
    32     9     4   ar
@<TRIPOS>MOLECULE
*****
 30 32 0 0 0
SMALL
GASTEIGER

@<TRIPOS>ATOM
      1 N         140.4892  139.0174  162.2520 N.ar    1  UNL1       -0.2859
      2 C         141.3778  140.1989  162.5061 C.ar    1  UNL1        0.1318
      3 C         141.3880  140.8531  163.8559 C.ar    1  UNL1        0.0261
      4 C         140.5095  140.3259  164.9516 C.ar    1  UNL1        0.0097
      5 C         140.5197  140.9801  166.3013 C.ar    1  UNL1        0.0371
      6 C         139.6413  140.4529  167.3969 C.ar    1  UNL1        0.1387
      7 C         138.7527  139.2715  167.1428 C.ar    1  UNL1        0.0371
      8 C         138.7425  138.6172  165.7930 C.ar    1  UNL1        0.0078
      9 C         139.6209  139.1444  164.6974 C.ar    1  UNL1        0.0565
     10 C         139.6107  138.4902  163.3476 C.ar    1  UNL1        0.2613
     11 O         138.7221  137.3088  163.0934 O.2     1  UNL1       -0.2670
     12 C         142.2766  142.0345  164.1100 C.ar    1  UNL1        0.0043
     13 C         143.6619  141.8292  164.6473 C.ar    1  UNL1        0.0002
     14 C         144.5505  143.0107  164.9014 C.ar    1  UNL1        0.0023
     15 C         144.0538  144.3974  164.6183 C.ar    1  UNL1        0.0296
     16 C         142.6684  144.6027  164.0810 C.ar    1  UNL1        0.1401
     17 F         142.1717  145.9895  163.7979 F       1  UNL1       -0.2042
     18 C         141.7798  143.4213  163.8269 C.ar    1  UNL1        0.0297
     19 C         142.2562  140.7261  161.4105 C.1     1  UNL1        0.1180
     20 N         143.1346  141.2533  160.3148 N.1     1  UNL1       -0.1893
     21 O         139.6514  141.1071  168.7467 O.3     1  UNL1       -0.4714
     22 C         140.9502  141.5366  169.3622 C.3     1  UNL1        0.2525
     23 C         140.4790  138.3632  160.9022 C.3     1  UNL1        0.1270
     24 C         139.5176  138.8301  159.8497 C.3     1  UNL1        0.0971
     25 N         138.5668  139.9515  160.1468 N.3     1  UNL1       -0.2677
     26 C         137.2291  139.6583  160.7589 C.3     1  UNL1        0.0897
     27 C         138.9536  141.3661  159.8318 C.3     1  UNL1        0.1046
     28 C         138.8285  142.4295  160.8823 C.3     1  UNL1        0.1595
     29 C         140.0970  144.2072  159.4751 C.3     1  UNL1        0.1742
     30 O         139.0889  143.8645  160.5316 O.3     1  UNL1       -0.3496
@<TRIPOS>BOND
     1    29    30    1
     2    30    28    1
     3    28    27    1
     4    27    25    1
     5    25    26    1
     6    25    24    1
     7    24    23    1
     8    23     1    1
     9     1     2   ar
    10     2    19    1
    11    19    20    3
    12     2     3   ar
    13     3    12    1
    14    12    13   ar
    15    13    14   ar
    16    14    15   ar
    17    15    16   ar
    18    16    17    1
    19    16    18   ar
    20     3     4   ar
    21     4     5   ar
    22     5     6   ar
    23     6    21    1
    24    21    22    1
    25     6     7   ar
    26     7     8   ar
    27     8     9   ar
    28     9    10   ar
    29    10    11    2
    30    10     1   ar
    31    18    12   ar
    32     9     4   ar
