@<TRIPOS>MOLECULE
*****
 33 37 0 0 0
SMALL
GASTEIGER

@<TRIPOS>ATOM
      1 C         139.6997  139.5986  166.8301 C.ar    1  UNL1        0.0206
      2 C         138.5950  138.8012  166.2026 C.ar    1  UNL1        0.0013
      3 C         138.7968  138.1697  164.8570 C.ar    1  UNL1       -0.0045
      4 C         140.1034  138.3358  164.1390 C.ar    1  UNL1       -0.0247
      5 C         141.2079  139.1332  164.7665 C.ar    1  UNL1       -0.0246
      6 C         141.0062  139.7646  166.1121 C.ar    1  UNL1       -0.0029
      7 C         142.5775  139.4203  164.2263 C.3     1  UNL1        0.0433
      8 C         143.1807  138.9808  162.9250 C.3     1  UNL1        0.0768
      9 N         142.5633  138.1458  161.8428 N.3     1  UNL1       -0.2720
     10 C         141.1902  137.5439  161.7943 C.3     1  UNL1        0.0768
     11 C         140.0954  137.6284  162.8162 C.3     1  UNL1        0.0433
     12 C         139.9591  142.9712  170.8846 C.3     1  UNL1        0.0754
     13 C         139.6170  141.7802  170.0394 C.ar    1  UNL1        0.1548
     14 C         140.0748  141.5374  168.6317 C.ar    1  UNL1        0.0580
     15 C         139.4978  140.2300  168.1757 C.ar    1  UNL1        0.1227
     16 N         138.6835  139.6649  169.3016 N.ar    1  UNL1       -0.0774
     17 O         138.7572  140.6229  170.4533 O.2     1  UNL1       -0.3578
     18 C         143.4341  137.8771  160.6514 C.3     1  UNL1        0.0730
     19 C         142.8436  137.8905  159.2724 C.3     1  UNL1        0.0294
     20 C         143.0085  139.0979  158.3977 C.3     1  UNL1        0.0666
     21 S         141.8495  140.0222  158.1691 S.3     1  UNL1       -0.0756
     22 C         140.8450  140.2495  159.2597 C.ar    1  UNL1        0.1930
     23 N         139.4433  139.7166  159.2923 N.ar    1  UNL1       -0.1224
     24 N         138.7978  140.1874  160.5618 N.ar    1  UNL1       -0.1328
     25 C         139.8007  141.0113  161.3138 C.ar    1  UNL1        0.1434
     26 N         141.0660  141.0497  160.5090 N.ar    1  UNL1       -0.2918
     27 C         142.3301  141.7630  160.8873 C.3     1  UNL1        0.1337
     28 C         139.5775  141.6794  162.6381 C.3     1  UNL1        0.0638
     29 C         138.2575  141.5382  163.3364 C.3     1  UNL1        0.0397
     30 C         138.0343  142.2064  164.6607 C.3     1  UNL1        0.1426
     31 O         139.1310  143.0158  165.2867 O.3     1  UNL1       -0.3538
     32 C         140.4511  143.1570  164.5884 C.3     1  UNL1        0.1426
     33 C         140.6742  142.4888  163.2641 C.3     1  UNL1        0.0397
@<TRIPOS>BOND
     1    12    13    1
     2    13    14   ar
     3    14    15   ar
     4    15     1    1
     5     1     2   ar
     6     2     3   ar
     7     3     4   ar
     8     4     5   ar
     9     5     6   ar
    10     5     7    1
    11     7     8    1
    12     8     9    1
    13     9    18    1
    14    18    19    1
    15    19    20    1
    16    20    21    1
    17    21    22    1
    18    22    23   ar
    19    23    24   ar
    20    24    25   ar
    21    25    28    1
    22    28    29    1
    23    29    30    1
    24    30    31    1
    25    31    32    1
    26    32    33    1
    27    25    26   ar
    28    26    27    1
    29     9    10    1
    30    10    11    1
    31    15    16   ar
    32    16    17   ar
    33    17    13   ar
    34     6     1   ar
    35    26    22   ar
    36    11     4    1
    37    33    28    1
@<TRIPOS>MOLECULE
*****
 33 37 0 0 0
SMALL
GASTEIGER

@<TRIPOS>ATOM
      1 C         139.7548  139.6423  166.7337 C.ar    1  UNL1        0.0206
      2 C         138.4735  139.3626  166.0058 C.ar    1  UNL1        0.0013
      3 C         138.5069  138.8988  164.5796 C.ar    1  UNL1       -0.0045
      4 C         139.8217  138.7148  163.8814 C.ar    1  UNL1       -0.0247
      5 C         141.1029  138.9945  164.6093 C.ar    1  UNL1       -0.0246
      6 C         141.0696  139.4583  166.0354 C.ar    1  UNL1       -0.0029
      7 C         142.5105  138.8765  164.1043 C.3     1  UNL1        0.0433
      8 C         142.9842  138.4496  162.7465 C.3     1  UNL1        0.0768
      9 N         142.1675  138.0354  161.5586 N.3     1  UNL1       -0.2720
     10 C         140.6753  137.9456  161.4349 C.3     1  UNL1        0.0768
     11 C         139.6313  138.2480  162.4687 C.3     1  UNL1        0.0433
     12 C         141.0139  142.0446  171.2640 C.3     1  UNL1        0.0754
     13 C         140.3001  141.2103  170.2422 C.ar    1  UNL1        0.1548
     14 C         140.7216  141.0107  168.8164 C.ar    1  UNL1        0.0580
     15 C         139.7214  140.1061  168.1598 C.ar    1  UNL1        0.1227
     16 N         138.6817  139.7466  169.1796 N.ar    1  UNL1       -0.0774
     17 O         139.0394  140.4291  170.4665 O.2     1  UNL1       -0.3578
     18 C         142.9458  137.6614  160.3321 C.3     1  UNL1        0.0730
     19 C         142.6196  138.2980  159.0136 C.3     1  UNL1        0.0294
     20 C         143.4546  139.4344  158.5024 C.3     1  UNL1        0.0666
     21 S         143.0108  140.8500  158.7237 S.3     1  UNL1       -0.0756
     22 C         142.5868  141.2980  160.0910 C.ar    1  UNL1        0.1930
     23 N         143.5013  141.6949  161.2118 N.ar    1  UNL1       -0.1224
     24 N         142.6536  142.0700  162.3911 N.ar    1  UNL1       -0.1328
     25 C         141.2152  141.9048  161.9991 C.ar    1  UNL1        0.1434
     26 N         141.1738  141.4277  160.5776 N.ar    1  UNL1       -0.2918
     27 C         139.9368  141.1322  159.7824 C.3     1  UNL1        0.1337
     28 C         140.0267  142.1702  162.8749 C.3     1  UNL1        0.0638
     29 C         138.6413  141.9293  162.3526 C.3     1  UNL1        0.0397
     30 C         137.4529  142.1946  163.2284 C.3     1  UNL1        0.1426
     31 O         137.6496  142.7009  164.6265 O.3     1  UNL1       -0.3538
     32 C         139.0349  142.9419  165.1489 C.3     1  UNL1        0.1426
     33 C         140.2234  142.6765  164.2731 C.3     1  UNL1        0.0397
@<TRIPOS>BOND
     1    12    13    1
     2    13    14   ar
     3    14    15   ar
     4    15     1    1
     5     1     2   ar
     6     2     3   ar
     7     3     4   ar
     8     4     5   ar
     9     5     6   ar
    10     5     7    1
    11     7     8    1
    12     8     9    1
    13     9    18    1
    14    18    19    1
    15    19    20    1
    16    20    21    1
    17    21    22    1
    18    22    23   ar
    19    23    24   ar
    20    24    25   ar
    21    25    28    1
    22    28    29    1
    23    29    30    1
    24    30    31    1
    25    31    32    1
    26    32    33    1
    27    25    26   ar
    28    26    27    1
    29     9    10    1
    30    10    11    1
    31    15    16   ar
    32    16    17   ar
    33    17    13   ar
    34     6     1   ar
    35    26    22   ar
    36    11     4    1
    37    33    28    1
@<TRIPOS>MOLECULE
*****
 33 37 0 0 0
SMALL
GASTEIGER

@<TRIPOS>ATOM
      1 C         142.1438  139.7303  167.1151 C.ar    1  UNL1        0.0206
      2 C         142.9993  138.6674  166.4919 C.ar    1  UNL1        0.0013
      3 C         142.5792  138.0269  165.2022 C.ar    1  UNL1       -0.0045
      4 C         141.3034  138.4493  164.5358 C.ar    1  UNL1       -0.0247
      5 C         140.4480  139.5122  165.1589 C.ar    1  UNL1       -0.0246
      6 C         140.8681  140.1527  166.4486 C.ar    1  UNL1       -0.0029
      7 C         139.1490  140.0765  164.6645 C.3     1  UNL1        0.0433
      8 C         138.3848  139.7171  163.4247 C.3     1  UNL1        0.0768
      9 N         138.7309  138.7049  162.3733 N.3     1  UNL1       -0.2720
     10 C         139.9265  137.8019  162.3018 C.3     1  UNL1        0.0768
     11 C         141.0714  137.6882  163.2642 C.3     1  UNL1        0.0433
     12 C         143.3423  143.3497  170.7680 C.3     1  UNL1        0.0754
     13 C         143.1149  142.0344  170.0839 C.ar    1  UNL1        0.1548
     14 C         142.6561  141.8445  168.6684 C.ar    1  UNL1        0.0580
     15 C         142.5640  140.3707  168.4048 C.ar    1  UNL1        0.1227
     16 N         142.9659  139.6498  169.6573 N.ar    1  UNL1       -0.0774
     17 O         143.3063  140.6780  170.6949 O.2     1  UNL1       -0.3578
     18 C         137.7518  138.5790  161.2439 C.3     1  UNL1        0.0730
     19 C         137.2746  139.8058  160.5245 C.3     1  UNL1        0.0294
     20 C         138.0071  140.2961  159.3108 C.3     1  UNL1        0.0666
     21 S         138.4952  141.7131  159.2509 S.3     1  UNL1       -0.0756
     22 C         138.9668  142.3974  160.4997 C.ar    1  UNL1        0.1930
     23 N         138.1029  143.1269  161.4853 N.ar    1  UNL1       -0.1224
     24 N         138.9873  143.6526  162.5768 N.ar    1  UNL1       -0.1328
     25 C         140.3978  143.2480  162.2658 C.ar    1  UNL1        0.1434
     26 N         140.3852  142.4722  160.9820 N.ar    1  UNL1       -0.2918
     27 C         141.5810  141.8760  160.3003 C.3     1  UNL1        0.1337
     28 C         141.6085  143.5637  163.0932 C.3     1  UNL1        0.0638
     29 C         142.4490  144.7622  162.7658 C.3     1  UNL1        0.0397
     30 C         143.6596  145.0779  163.5933 C.3     1  UNL1        0.1426
     31 O         144.0298  144.1952  164.7481 O.3     1  UNL1       -0.3538
     32 C         143.1894  142.9966  165.0755 C.3     1  UNL1        0.1426
     33 C         141.9787  142.6809  164.2480 C.3     1  UNL1        0.0397
@<TRIPOS>BOND
     1    12    13    1
     2    13    14   ar
     3    14    15   ar
     4    15     1    1
     5     1     2   ar
     6     2     3   ar
     7     3     4   ar
     8     4     5   ar
     9     5     6   ar
    10     5     7    1
    11     7     8    1
    12     8     9    1
    13     9    18    1
    14    18    19    1
    15    19    20    1
    16    20    21    1
    17    21    22    1
    18    22    23   ar
    19    23    24   ar
    20    24    25   ar
    21    25    28    1
    22    28    29    1
    23    29    30    1
    24    30    31    1
    25    31    32    1
    26    32    33    1
    27    25    26   ar
    28    26    27    1
    29     9    10    1
    30    10    11    1
    31    15    16   ar
    32    16    17   ar
    33    17    13   ar
    34     6     1   ar
    35    26    22   ar
    36    11     4    1
    37    33    28    1
@<TRIPOS>MOLECULE
*****
 33 37 0 0 0
SMALL
GASTEIGER

@<TRIPOS>ATOM
      1 C         139.6306  140.3193  166.8613 C.ar    1  UNL1        0.0206
      2 C         138.6863  139.1551  166.8083 C.ar    1  UNL1        0.0013
      3 C         138.5462  138.3600  165.5440 C.ar    1  UNL1       -0.0045
      4 C         139.3504  138.7293  164.3328 C.ar    1  UNL1       -0.0247
      5 C         140.2946  139.8935  164.3859 C.ar    1  UNL1       -0.0246
      6 C         140.4348  140.6886  165.6501 C.ar    1  UNL1       -0.0029
      7 C         141.1832  140.4273  163.3016 C.3     1  UNL1        0.0433
      8 C         141.3468  139.9285  161.8964 C.3     1  UNL1        0.0768
      9 N         140.6624  138.7729  161.2286 N.3     1  UNL1       -0.2720
     10 C         139.6453  137.8306  161.8008 C.3     1  UNL1        0.0768
     11 C         139.0614  137.8111  163.1824 C.3     1  UNL1        0.0433
     12 C         140.6454  144.2544  170.2326 C.3     1  UNL1        0.0754
     13 C         140.2371  142.9231  169.6753 C.ar    1  UNL1        0.1548
     14 C         140.2590  142.5289  168.2281 C.ar    1  UNL1        0.0580
     15 C         139.7707  141.1143  168.1256 C.ar    1  UNL1        0.1227
     16 N         139.4470  140.6342  169.5093 N.ar    1  UNL1       -0.0774
     17 O         139.7353  141.7521  170.4670 O.2     1  UNL1       -0.3578
     18 C         141.0458  138.5271  159.7994 C.3     1  UNL1        0.0730
     19 C         140.9597  139.6402  158.7975 C.3     1  UNL1        0.0294
     20 C         139.8199  139.6862  157.8235 C.3     1  UNL1        0.0666
     21 S         138.5817  140.4656  158.1542 S.3     1  UNL1       -0.0756
     22 C         138.2864  140.8359  159.5775 C.ar    1  UNL1        0.1930
     23 N         137.4002  140.0771  160.5202 N.ar    1  UNL1       -0.1224
     24 N         137.3915  140.8022  161.8333 N.ar    1  UNL1       -0.1328
     25 C         138.2724  142.0092  161.7020 C.ar    1  UNL1        0.1434
     26 N         138.8255  142.0300  160.3078 N.ar    1  UNL1       -0.2918
     27 C         139.7545  143.0635  159.7432 C.3     1  UNL1        0.1337
     28 C         138.5512  143.0182  162.7763 C.3     1  UNL1        0.0638
     29 C         137.5277  143.2832  163.8403 C.3     1  UNL1        0.0397
     30 C         137.8065  144.2922  164.9146 C.3     1  UNL1        0.1426
     31 O         139.1089  145.0363  164.9249 O.3     1  UNL1       -0.3538
     32 C         140.1324  144.7713  163.8609 C.3     1  UNL1        0.1426
     33 C         139.8536  143.7623  162.7867 C.3     1  UNL1        0.0397
@<TRIPOS>BOND
     1    12    13    1
     2    13    14   ar
     3    14    15   ar
     4    15     1    1
     5     1     2   ar
     6     2     3   ar
     7     3     4   ar
     8     4     5   ar
     9     5     6   ar
    10     5     7    1
    11     7     8    1
    12     8     9    1
    13     9    18    1
    14    18    19    1
    15    19    20    1
    16    20    21    1
    17    21    22    1
    18    22    23   ar
    19    23    24   ar
    20    24    25   ar
    21    25    28    1
    22    28    29    1
    23    29    30    1
    24    30    31    1
    25    31    32    1
    26    32    33    1
    27    25    26   ar
    28    26    27    1
    29     9    10    1
    30    10    11    1
    31    15    16   ar
    32    16    17   ar
    33    17    13   ar
    34     6     1   ar
    35    26    22   ar
    36    11     4    1
    37    33    28    1
@<TRIPOS>MOLECULE
*****
 33 37 0 0 0
SMALL
GASTEIGER

@<TRIPOS>ATOM
      1 C         138.9693  139.5463  166.5650 C.ar    1  UNL1        0.0206
      2 C         139.0092  138.0974  166.1791 C.ar    1  UNL1        0.0013
      3 C         138.8702  137.7005  164.7392 C.ar    1  UNL1       -0.0045
      4 C         138.6913  138.7528  163.6852 C.ar    1  UNL1       -0.0247
      5 C         138.6515  140.2016  164.0711 C.ar    1  UNL1       -0.0246
      6 C         138.7905  140.5985  165.5109 C.ar    1  UNL1       -0.0029
      7 C         138.4832  141.4010  163.1859 C.3     1  UNL1        0.0433
      8 C         138.3132  141.4474  161.6962 C.3     1  UNL1        0.0768
      9 N         138.2695  140.3062  160.7240 N.3     1  UNL1       -0.2720
     10 C         138.3850  138.8365  161.0010 C.3     1  UNL1        0.0768
     11 C         138.5727  138.1451  162.3189 C.3     1  UNL1        0.0433
     12 C         140.7359  141.7838  171.0094 C.3     1  UNL1        0.0754
     13 C         139.9203  140.9715  170.0478 C.ar    1  UNL1        0.1548
     14 C         140.1579  140.8526  168.5714 C.ar    1  UNL1        0.0580
     15 C         139.1083  139.9431  168.0048 C.ar    1  UNL1        0.1227
     16 N         138.2220  139.4999  169.1309 N.ar    1  UNL1       -0.0774
     17 O         138.7238  140.1355  170.3935 O.2     1  UNL1       -0.3578
     18 C         138.0860  140.6845  159.2841 C.3     1  UNL1        0.0730
     19 C         139.2445  141.2197  158.4957 C.3     1  UNL1        0.0294
     20 C         140.2675  140.2781  157.9326 C.3     1  UNL1        0.0666
     21 S         141.6362  140.2059  158.5420 S.3     1  UNL1       -0.0756
     22 C         141.8254  139.5711  159.8879 C.ar    1  UNL1        0.1930
     23 N         141.8860  138.0987  160.1676 N.ar    1  UNL1       -0.1224
     24 N         142.0853  137.9149  161.6429 N.ar    1  UNL1       -0.1328
     25 C         142.1479  139.2738  162.2749 C.ar    1  UNL1        0.1434
     26 N         141.9873  140.2974  161.1903 N.ar    1  UNL1       -0.2918
     27 C         141.9884  141.7859  161.3756 C.3     1  UNL1        0.1337
     28 C         142.3378  139.5590  163.7353 C.3     1  UNL1        0.0638
     29 C         142.3240  140.9746  164.2310 C.3     1  UNL1        0.0397
     30 C         142.5139  141.2598  165.6913 C.3     1  UNL1        0.1426
     31 O         142.7176  140.1295  166.6560 O.3     1  UNL1       -0.3538
     32 C         142.7313  138.7138  166.1603 C.3     1  UNL1        0.1426
     33 C         142.5414  138.4286  164.7000 C.3     1  UNL1        0.0397
@<TRIPOS>BOND
     1    12    13    1
     2    13    14   ar
     3    14    15   ar
     4    15     1    1
     5     1     2   ar
     6     2     3   ar
     7     3     4   ar
     8     4     5   ar
     9     5     6   ar
    10     5     7    1
    11     7     8    1
    12     8     9    1
    13     9    18    1
    14    18    19    1
    15    19    20    1
    16    20    21    1
    17    21    22    1
    18    22    23   ar
    19    23    24   ar
    20    24    25   ar
    21    25    28    1
    22    28    29    1
    23    29    30    1
    24    30    31    1
    25    31    32    1
    26    32    33    1
    27    25    26   ar
    28    26    27    1
    29     9    10    1
    30    10    11    1
    31    15    16   ar
    32    16    17   ar
    33    17    13   ar
    34     6     1   ar
    35    26    22   ar
    36    11     4    1
    37    33    28    1
@<TRIPOS>MOLECULE
*****
 33 37 0 0 0
SMALL
GASTEIGER

@<TRIPOS>ATOM
      1 C         140.8212  142.8366  166.0790 C.ar    1  UNL1        0.0206
      2 C         139.6091  143.7178  166.1446 C.ar    1  UNL1        0.0013
      3 C         139.2127  144.5379  164.9528 C.ar    1  UNL1       -0.0045
      4 C         140.0284  144.4767  163.6954 C.ar    1  UNL1       -0.0247
      5 C         141.2404  143.5955  163.6299 C.ar    1  UNL1       -0.0246
      6 C         141.6369  142.7754  164.8216 C.ar    1  UNL1       -0.0029
      7 C         142.1854  143.3886  162.4834 C.3     1  UNL1        0.0433
      8 C         142.1516  144.0119  161.1194 C.3     1  UNL1        0.0768
      9 N         141.1646  144.9959  160.5650 N.3     1  UNL1       -0.2720
     10 C         139.9676  145.5998  161.2376 C.3     1  UNL1        0.0768
     11 C         139.4619  145.3687  162.6308 C.3     1  UNL1        0.0433
     12 C         140.6885  140.3660  170.7437 C.3     1  UNL1        0.0754
     13 C         141.1566  140.8810  169.4149 C.ar    1  UNL1        0.1548
     14 C         140.3648  141.7390  168.4731 C.ar    1  UNL1        0.0580
     15 C         141.2176  142.0166  167.2708 C.ar    1  UNL1        0.1227
     16 N         142.5365  141.3302  167.4695 N.ar    1  UNL1       -0.0774
     17 O         142.4988  140.6284  168.7946 O.2     1  UNL1       -0.3578
     18 C         141.4067  145.4340  159.1510 C.3     1  UNL1        0.0730
     19 C         140.9910  144.5522  158.0109 C.3     1  UNL1        0.0294
     20 C         139.6362  143.9084  158.0160 C.3     1  UNL1        0.0666
     21 S         139.4785  142.4966  158.4972 S.3     1  UNL1       -0.0756
     22 C         138.9967  142.2291  159.8924 C.ar    1  UNL1        0.1930
     23 N         137.7927  142.8438  160.5423 N.ar    1  UNL1       -0.1224
     24 N         137.6862  142.2946  161.9341 N.ar    1  UNL1       -0.1328
     25 C         138.8245  141.3406  162.1443 C.ar    1  UNL1        0.1434
     26 N         139.6345  141.3001  160.8824 N.ar    1  UNL1       -0.2918
     27 C         140.8659  140.4754  160.6513 C.3     1  UNL1        0.1337
     28 C         139.1038  140.5635  163.3965 C.3     1  UNL1        0.0638
     29 C         140.3519  139.7386  163.5047 C.3     1  UNL1        0.0397
     30 C         140.6312  138.9615  164.7569 C.3     1  UNL1        0.1426
     31 O         139.6624  139.0092  165.9010 O.3     1  UNL1       -0.3538
     32 C         138.4143  139.8341  165.7929 C.3     1  UNL1        0.1426
     33 C         138.1350  140.6112  164.5407 C.3     1  UNL1        0.0397
@<TRIPOS>BOND
     1    12    13    1
     2    13    14   ar
     3    14    15   ar
     4    15     1    1
     5     1     2   ar
     6     2     3   ar
     7     3     4   ar
     8     4     5   ar
     9     5     6   ar
    10     5     7    1
    11     7     8    1
    12     8     9    1
    13     9    18    1
    14    18    19    1
    15    19    20    1
    16    20    21    1
    17    21    22    1
    18    22    23   ar
    19    23    24   ar
    20    24    25   ar
    21    25    28    1
    22    28    29    1
    23    29    30    1
    24    30    31    1
    25    31    32    1
    26    32    33    1
    27    25    26   ar
    28    26    27    1
    29     9    10    1
    30    10    11    1
    31    15    16   ar
    32    16    17   ar
    33    17    13   ar
    34     6     1   ar
    35    26    22   ar
    36    11     4    1
    37    33    28    1
@<TRIPOS>MOLECULE
*****
 33 37 0 0 0
SMALL
GASTEIGER

@<TRIPOS>ATOM
      1 C         139.8976  140.8879  166.6889 C.ar    1  UNL1        0.0206
      2 C         138.7588  140.2478  165.9517 C.ar    1  UNL1        0.0013
      3 C         138.3130  140.8036  164.6316 C.ar    1  UNL1       -0.0045
      4 C         139.0060  141.9995  164.0489 C.ar    1  UNL1       -0.0247
      5 C         140.1447  142.6396  164.7861 C.ar    1  UNL1       -0.0246
      6 C         140.5905  142.0838  166.1061 C.ar    1  UNL1       -0.0029
      7 C         140.9663  143.8294  164.3870 C.3     1  UNL1        0.0433
      8 C         140.8520  144.6730  163.1518 C.3     1  UNL1        0.0768
      9 N         139.8880  144.5351  162.0111 N.3     1  UNL1       -0.2720
     10 C         138.8001  143.5196  161.8234 C.3     1  UNL1        0.0768
     11 C         138.4075  142.3911  162.7304 C.3     1  UNL1        0.0433
     12 C         142.9460  139.1469  170.6331 C.3     1  UNL1        0.0754
     13 C         141.7445  139.5318  169.8218 C.ar    1  UNL1        0.1548
     14 C         141.7628  140.0945  168.4314 C.ar    1  UNL1        0.0580
     15 C         140.3433  140.3320  168.0089 C.ar    1  UNL1        0.1227
     16 N         139.4477  139.9161  169.1380 N.ar    1  UNL1       -0.0774
     17 O         140.3137  139.4215  170.2584 O.2     1  UNL1       -0.3578
     18 C         140.0307  145.5464  160.9125 C.3     1  UNL1        0.0730
     19 C         141.0345  145.3296  159.8191 C.3     1  UNL1        0.0294
     20 C         140.8489  144.2063  158.8425 C.3     1  UNL1        0.0666
     21 S         141.7761  143.0276  158.8700 S.3     1  UNL1       -0.0756
     22 C         142.0742  142.3380  160.1683 C.ar    1  UNL1        0.1930
     23 N         143.1336  142.7335  161.1539 N.ar    1  UNL1       -0.1224
     24 N         143.0793  141.7718  162.3037 N.ar    1  UNL1       -0.1328
     25 C         141.9864  140.7819  162.0288 C.ar    1  UNL1        0.1434
     26 N         141.3652  141.1318  160.7090 N.ar    1  UNL1       -0.2918
     27 C         140.2336  140.4034  160.0464 C.3     1  UNL1        0.1337
     28 C         141.5851  139.6421  162.9175 C.3     1  UNL1        0.0638
     29 C         142.3152  139.4025  164.2058 C.3     1  UNL1        0.0397
     30 C         141.9140  138.2628  165.0946 C.3     1  UNL1        0.1426
     31 O         140.7826  137.3625  164.6952 O.3     1  UNL1       -0.3538
     32 C         140.0525  137.6021  163.4069 C.3     1  UNL1        0.1426
     33 C         140.4538  138.7419  162.5182 C.3     1  UNL1        0.0397
@<TRIPOS>BOND
     1    12    13    1
     2    13    14   ar
     3    14    15   ar
     4    15     1    1
     5     1     2   ar
     6     2     3   ar
     7     3     4   ar
     8     4     5   ar
     9     5     6   ar
    10     5     7    1
    11     7     8    1
    12     8     9    1
    13     9    18    1
    14    18    19    1
    15    19    20    1
    16    20    21    1
    17    21    22    1
    18    22    23   ar
    19    23    24   ar
    20    24    25   ar
    21    25    28    1
    22    28    29    1
    23    29    30    1
    24    30    31    1
    25    31    32    1
    26    32    33    1
    27    25    26   ar
    28    26    27    1
    29     9    10    1
    30    10    11    1
    31    15    16   ar
    32    16    17   ar
    33    17    13   ar
    34     6     1   ar
    35    26    22   ar
    36    11     4    1
    37    33    28    1
@<TRIPOS>MOLECULE
*****
 33 37 0 0 0
SMALL
GASTEIGER

@<TRIPOS>ATOM
      1 C         140.5312  140.9088  166.5234 C.ar    1  UNL1        0.0206
      2 C         139.2895  140.0681  166.5611 C.ar    1  UNL1        0.0013
      3 C         138.4156  139.9660  165.3462 C.ar    1  UNL1       -0.0045
      4 C         138.7836  140.7047  164.0935 C.ar    1  UNL1       -0.0247
      5 C         140.0253  141.5453  164.0559 C.ar    1  UNL1       -0.0246
      6 C         140.8991  141.6474  165.2708 C.ar    1  UNL1       -0.0029
      7 C         140.5712  142.3568  162.9185 C.3     1  UNL1        0.0433
      8 C         140.0101  142.5280  161.5379 C.3     1  UNL1        0.0768
      9 N         138.7647  141.9301  160.9538 N.3     1  UNL1       -0.2720
     10 C         137.7726  141.0132  161.6059 C.3     1  UNL1        0.0768
     11 C         137.7810  140.4678  163.0032 C.3     1  UNL1        0.0433
     12 C         144.1996  142.5522  169.9473 C.3     1  UNL1        0.0754
     13 C         143.0911  141.7661  169.3122 C.ar    1  UNL1        0.1548
     14 C         142.4713  142.0391  167.9737 C.ar    1  UNL1        0.0580
     15 C         141.4049  141.0108  167.7384 C.ar    1  UNL1        0.1227
     16 N         141.3657  140.1023  168.9314 N.ar    1  UNL1       -0.0774
     17 O         142.4078  140.5691  169.9040 O.2     1  UNL1       -0.3578
     18 C         138.4726  142.2976  159.5292 C.3     1  UNL1        0.0730
     19 C         139.0968  141.5175  158.4102 C.3     1  UNL1        0.0294
     20 C         138.7984  140.0555  158.2575 C.3     1  UNL1        0.0666
     21 S         139.8636  139.0388  158.5434 S.3     1  UNL1       -0.0756
     22 C         140.1669  138.6483  159.9596 C.ar    1  UNL1        0.1930
     23 N         139.3205  137.7699  160.8325 N.ar    1  UNL1       -0.1224
     24 N         140.0003  137.6463  162.1639 N.ar    1  UNL1       -0.1328
     25 C         141.2669  138.4483  162.1137 C.ar    1  UNL1        0.1434
     26 N         141.3699  139.0676  160.7514 N.ar    1  UNL1       -0.2918
     27 C         142.4808  139.9510  160.2661 C.3     1  UNL1        0.1337
     28 C         142.2568  138.6038  163.2299 C.3     1  UNL1        0.0638
     29 C         143.5923  139.2338  162.9658 C.3     1  UNL1        0.0397
     30 C         144.5821  139.3893  164.0820 C.3     1  UNL1        0.1426
     31 O         144.2367  138.9148  165.4624 O.3     1  UNL1       -0.3538
     32 C         142.9012  138.2848  165.7265 C.3     1  UNL1        0.1426
     33 C         141.9114  138.1294  164.6103 C.3     1  UNL1        0.0397
@<TRIPOS>BOND
     1    12    13    1
     2    13    14   ar
     3    14    15   ar
     4    15     1    1
     5     1     2   ar
     6     2     3   ar
     7     3     4   ar
     8     4     5   ar
     9     5     6   ar
    10     5     7    1
    11     7     8    1
    12     8     9    1
    13     9    18    1
    14    18    19    1
    15    19    20    1
    16    20    21    1
    17    21    22    1
    18    22    23   ar
    19    23    24   ar
    20    24    25   ar
    21    25    28    1
    22    28    29    1
    23    29    30    1
    24    30    31    1
    25    31    32    1
    26    32    33    1
    27    25    26   ar
    28    26    27    1
    29     9    10    1
    30    10    11    1
    31    15    16   ar
    32    16    17   ar
    33    17    13   ar
    34     6     1   ar
    35    26    22   ar
    36    11     4    1
    37    33    28    1
@<TRIPOS>MOLECULE
*****
 33 37 0 0 0
SMALL
GASTEIGER

@<TRIPOS>ATOM
      1 C         142.9094  142.0871  167.0113 C.ar    1  UNL1        0.0206
      2 C         143.7482  143.1191  166.3175 C.ar    1  UNL1        0.0013
      3 C         144.2931  142.8450  164.9471 C.ar    1  UNL1       -0.0045
      4 C         143.9991  141.5389  164.2705 C.ar    1  UNL1       -0.0247
      5 C         143.1603  140.5070  164.9643 C.ar    1  UNL1       -0.0246
      6 C         142.6154  140.7810  166.3347 C.ar    1  UNL1       -0.0029
      7 C         142.7505  139.1503  164.4729 C.3     1  UNL1        0.0433
      8 C         143.0784  138.4905  163.1663 C.3     1  UNL1        0.0768
      9 N         143.8970  139.0245  162.0285 N.3     1  UNL1       -0.2720
     10 C         144.5899  140.3501  161.9161 C.3     1  UNL1        0.0768
     11 C         144.6354  141.4691  162.9139 C.3     1  UNL1        0.0433
     12 C         139.5827  143.1310  170.9767 C.3     1  UNL1        0.0754
     13 C         140.8355  142.8411  170.2044 C.ar    1  UNL1        0.1548
     14 C         140.9266  142.6162  168.7241 C.ar    1  UNL1        0.0580
     15 C         142.3646  142.3612  168.3817 C.ar    1  UNL1        0.1227
     16 N         143.1621  142.4285  169.6504 N.ar    1  UNL1       -0.0774
     17 O         142.2171  142.7250  170.7768 O.2     1  UNL1       -0.3578
     18 C         144.0419  138.1122  160.8466 C.3     1  UNL1        0.0730
     19 C         142.8223  137.5390  160.1876 C.3     1  UNL1        0.0294
     20 C         141.9197  138.4244  159.3805 C.3     1  UNL1        0.0666
     21 S         140.4635  138.5249  159.7254 S.3     1  UNL1       -0.0756
     22 C         140.0396  139.1817  161.0057 C.ar    1  UNL1        0.1930
     23 N         139.6111  138.4767  162.2585 N.ar    1  UNL1       -0.1224
     24 N         139.2764  139.5180  163.2850 N.ar    1  UNL1       -0.1328
     25 C         139.4981  140.8665  162.6666 C.ar    1  UNL1        0.1434
     26 N         139.9697  140.6587  161.2579 N.ar    1  UNL1       -0.2918
     27 C         140.3115  141.7383  160.2742 C.3     1  UNL1        0.1337
     28 C         139.2854  142.1904  163.3389 C.3     1  UNL1        0.0638
     29 C         140.2920  142.6999  164.3274 C.3     1  UNL1        0.0397
     30 C         140.0793  144.0238  164.9997 C.3     1  UNL1        0.1426
     31 O         138.8601  144.8384  164.6834 O.3     1  UNL1       -0.3538
     32 C         137.8536  144.3289  163.6948 C.3     1  UNL1        0.1426
     33 C         138.0662  143.0050  163.0226 C.3     1  UNL1        0.0397
@<TRIPOS>BOND
     1    12    13    1
     2    13    14   ar
     3    14    15   ar
     4    15     1    1
     5     1     2   ar
     6     2     3   ar
     7     3     4   ar
     8     4     5   ar
     9     5     6   ar
    10     5     7    1
    11     7     8    1
    12     8     9    1
    13     9    18    1
    14    18    19    1
    15    19    20    1
    16    20    21    1
    17    21    22    1
    18    22    23   ar
    19    23    24   ar
    20    24    25   ar
    21    25    28    1
    22    28    29    1
    23    29    30    1
    24    30    31    1
    25    31    32    1
    26    32    33    1
    27    25    26   ar
    28    26    27    1
    29     9    10    1
    30    10    11    1
    31    15    16   ar
    32    16    17   ar
    33    17    13   ar
    34     6     1   ar
    35    26    22   ar
    36    11     4    1
    37    33    28    1
