@<TRIPOS>MOLECULE
*****
 18 19 0 0 0
SMALL
GASTEIGER

@<TRIPOS>ATOM
      1 C         138.5974  140.4867  164.9843 C.ar    1  UNL1       -0.0222
      2 C         139.6906  141.4198  165.4134 C.ar    1  UNL1       -0.0046
      3 C         140.2960  141.2879  166.7795 C.ar    1  UNL1       -0.0045
      4 C         139.8081  140.2230  167.7165 C.ar    1  UNL1       -0.0181
      5 C         138.7149  139.2899  167.2873 C.ar    1  UNL1       -0.0045
      6 C         138.1095  139.4218  165.9212 C.ar    1  UNL1       -0.0046
      7 C         140.4135  140.0912  169.0825 C.3     1  UNL1        0.0735
      8 C         141.7577  139.8473  168.4633 C.3     1  UNL1        0.0094
      9 C         139.0692  140.3351  169.7018 C.3     1  UNL1        0.1485
     10 O         139.6745  140.2032  171.0678 O.3     1  UNL1       -0.3529
     11 C         141.0188  139.9593  170.4486 C.3     1  UNL1        0.1485
     12 C         137.9921  140.6185  163.6182 C.3     1  UNL1        0.0264
     13 C         137.2343  141.8596  163.2503 C.3     1  UNL1        0.0061
     14 C         137.9166  142.9568  162.4884 C.3     1  UNL1        0.0177
     15 C         137.9609  144.3462  163.0523 C.3     1  UNL1        0.0722
     16 C         140.4330  144.8157  163.6989 C.3     1  UNL1        0.0897
     17 N         138.9880  144.7039  164.0853 N.3     1  UNL1       -0.2703
     18 C         138.5699  144.9499  165.5048 C.3     1  UNL1        0.0897
@<TRIPOS>BOND
     1    16    17    1
     2    17    18    1
     3    17    15    1
     4    15    14    1
     5    14    13    1
     6    13    12    1
     7    12     1    1
     8     1     2   ar
     9     2     3   ar
    10     3     4   ar
    11     4     7    1
    12     7     8    1
    13     7     9    1
    14     9    10    1
    15    10    11    1
    16     4     5   ar
    17     5     6   ar
    18     6     1   ar
    19    11     7    1
@<TRIPOS>MOLECULE
*****
 18 19 0 0 0
SMALL
GASTEIGER

@<TRIPOS>ATOM
      1 C         139.2476  140.2926  166.4205 C.ar    1  UNL1       -0.0222
      2 C         139.3555  139.8078  167.8358 C.ar    1  UNL1       -0.0046
      3 C         140.1959  140.5604  168.8244 C.ar    1  UNL1       -0.0045
      4 C         140.9283  141.7979  168.3977 C.ar    1  UNL1       -0.0181
      5 C         140.8203  142.2828  166.9824 C.ar    1  UNL1       -0.0045
      6 C         139.9799  141.5302  165.9938 C.ar    1  UNL1       -0.0046
      7 C         141.7687  142.5505  169.3863 C.3     1  UNL1        0.0735
      8 C         140.5262  143.0654  170.0505 C.3     1  UNL1        0.0094
      9 C         143.0112  142.0356  168.7221 C.3     1  UNL1        0.1485
     10 O         143.8515  142.7883  169.7107 O.3     1  UNL1       -0.3529
     11 C         142.6091  143.3032  170.3749 C.3     1  UNL1        0.1485
     12 C         138.4072  139.5400  165.4319 C.3     1  UNL1        0.0264
     13 C         138.6907  138.0935  165.1541 C.3     1  UNL1        0.0061
     14 C         139.7868  137.7132  164.2033 C.3     1  UNL1        0.0177
     15 C         141.1788  137.4881  164.7148 C.3     1  UNL1        0.0722
     16 C         142.7175  138.8562  166.2993 C.3     1  UNL1        0.0897
     17 N         142.0887  138.6568  164.9522 N.3     1  UNL1       -0.2703
     18 C         142.3698  139.6260  163.8423 C.3     1  UNL1        0.0897
@<TRIPOS>BOND
     1    16    17    1
     2    17    18    1
     3    17    15    1
     4    15    14    1
     5    14    13    1
     6    13    12    1
     7    12     1    1
     8     1     2   ar
     9     2     3   ar
    10     3     4   ar
    11     4     7    1
    12     7     8    1
    13     7     9    1
    14     9    10    1
    15    10    11    1
    16     4     5   ar
    17     5     6   ar
    18     6     1   ar
    19    11     7    1
@<TRIPOS>MOLECULE
*****
 18 19 0 0 0
SMALL
GASTEIGER

@<TRIPOS>ATOM
      1 C         139.0267  139.9824  165.8114 C.ar    1  UNL1       -0.0222
      2 C         139.8073  141.2624  165.8595 C.ar    1  UNL1       -0.0046
      3 C         140.2486  141.8226  167.1792 C.ar    1  UNL1       -0.0045
      4 C         139.9091  141.1029  168.4507 C.ar    1  UNL1       -0.0181
      5 C         139.1285  139.8230  168.4025 C.ar    1  UNL1       -0.0045
      6 C         138.6873  139.2628  167.0829 C.ar    1  UNL1       -0.0046
      7 C         140.3503  141.6632  169.7703 C.3     1  UNL1        0.0735
      8 C         140.5511  143.0062  169.1330 C.3     1  UNL1        0.0094
      9 C         140.1496  140.3202  170.4076 C.3     1  UNL1        0.1485
     10 O         140.5908  140.8805  171.7272 O.3     1  UNL1       -0.3529
     11 C         140.7916  142.2234  171.0900 C.3     1  UNL1        0.1485
     12 C         138.5855  139.4222  164.4917 C.3     1  UNL1        0.0264
     13 C         138.8615  137.9865  164.1565 C.3     1  UNL1        0.0061
     14 C         140.2015  137.5873  163.6133 C.3     1  UNL1        0.0177
     15 C         141.3268  137.2685  164.5526 C.3     1  UNL1        0.0722
     16 C         142.6077  138.8115  166.2043 C.3     1  UNL1        0.0897
     17 N         142.3961  138.2872  164.8150 N.3     1  UNL1       -0.2703
     18 C         143.2538  138.7815  163.6880 C.3     1  UNL1        0.0897
@<TRIPOS>BOND
     1    16    17    1
     2    17    18    1
     3    17    15    1
     4    15    14    1
     5    14    13    1
     6    13    12    1
     7    12     1    1
     8     1     2   ar
     9     2     3   ar
    10     3     4   ar
    11     4     7    1
    12     7     8    1
    13     7     9    1
    14     9    10    1
    15    10    11    1
    16     4     5   ar
    17     5     6   ar
    18     6     1   ar
    19    11     7    1
@<TRIPOS>MOLECULE
*****
 18 19 0 0 0
SMALL
GASTEIGER

@<TRIPOS>ATOM
      1 C         139.2275  140.4499  166.3150 C.ar    1  UNL1       -0.0222
      2 C         139.3560  139.8903  167.7007 C.ar    1  UNL1       -0.0046
      3 C         140.2144  140.5873  168.7143 C.ar    1  UNL1       -0.0045
      4 C         140.9443  141.8437  168.3422 C.ar    1  UNL1       -0.0181
      5 C         140.8157  142.4033  166.9564 C.ar    1  UNL1       -0.0045
      6 C         139.9573  141.7064  165.9428 C.ar    1  UNL1       -0.0046
      7 C         141.8027  142.5407  169.3558 C.3     1  UNL1        0.0735
      8 C         140.5727  143.0350  170.0577 C.3     1  UNL1        0.0094
      9 C         143.0328  142.0464  168.6539 C.3     1  UNL1        0.1485
     10 O         143.8912  142.7433  169.6675 O.3     1  UNL1       -0.3529
     11 C         142.6611  143.2376  170.3694 C.3     1  UNL1        0.1485
     12 C         138.3690  139.7529  165.3014 C.3     1  UNL1        0.0264
     13 C         138.5687  140.0198  163.8389 C.3     1  UNL1        0.0061
     14 C         138.3032  138.9366  162.8358 C.3     1  UNL1        0.0177
     15 C         139.0072  137.6172  162.9526 C.3     1  UNL1        0.0722
     16 C         141.0654  137.2128  164.4856 C.3     1  UNL1        0.0897
     17 N         140.4940  137.5751  163.1469 N.3     1  UNL1       -0.2703
     18 C         141.4093  137.8954  162.0025 C.3     1  UNL1        0.0897
@<TRIPOS>BOND
     1    16    17    1
     2    17    18    1
     3    17    15    1
     4    15    14    1
     5    14    13    1
     6    13    12    1
     7    12     1    1
     8     1     2   ar
     9     2     3   ar
    10     3     4   ar
    11     4     7    1
    12     7     8    1
    13     7     9    1
    14     9    10    1
    15    10    11    1
    16     4     5   ar
    17     5     6   ar
    18     6     1   ar
    19    11     7    1
@<TRIPOS>MOLECULE
*****
 18 19 0 0 0
SMALL
GASTEIGER

@<TRIPOS>ATOM
      1 C         139.3252  141.0732  165.9278 C.ar    1  UNL1       -0.0222
      2 C         140.4785  141.9994  166.1769 C.ar    1  UNL1       -0.0046
      3 C         140.6740  143.2048  165.3057 C.ar    1  UNL1       -0.0045
      4 C         139.7164  143.4839  164.1856 C.ar    1  UNL1       -0.0181
      5 C         138.5631  142.5577  163.9365 C.ar    1  UNL1       -0.0045
      6 C         138.3675  141.3524  164.8076 C.ar    1  UNL1       -0.0046
      7 C         139.9119  144.6893  163.3144 C.3     1  UNL1        0.0735
      8 C         141.2878  144.8761  163.8819 C.3     1  UNL1        0.0094
      9 C         138.5361  144.5024  162.7469 C.3     1  UNL1        0.1485
     10 O         138.7317  145.7077  161.8758 O.3     1  UNL1       -0.3529
     11 C         140.1075  145.8946  162.4433 C.3     1  UNL1        0.1485
     12 C         139.1296  139.8678  166.7989 C.3     1  UNL1        0.0264
     13 C         138.1194  138.8254  166.4212 C.3     1  UNL1        0.0061
     14 C         138.5356  137.6396  165.6023 C.3     1  UNL1        0.0177
     15 C         139.8453  137.6555  164.8711 C.3     1  UNL1        0.0722
     16 C         141.1611  137.5403  162.6339 C.3     1  UNL1        0.0897
     17 N         139.8670  137.7128  163.3724 N.3     1  UNL1       -0.2703
     18 C         138.5944  137.9426  162.6122 C.3     1  UNL1        0.0897
@<TRIPOS>BOND
     1    16    17    1
     2    17    18    1
     3    17    15    1
     4    15    14    1
     5    14    13    1
     6    13    12    1
     7    12     1    1
     8     1     2   ar
     9     2     3   ar
    10     3     4   ar
    11     4     7    1
    12     7     8    1
    13     7     9    1
    14     9    10    1
    15    10    11    1
    16     4     5   ar
    17     5     6   ar
    18     6     1   ar
    19    11     7    1
@<TRIPOS>MOLECULE
*****
 18 19 0 0 0
SMALL
GASTEIGER

@<TRIPOS>ATOM
      1 C         139.3171  138.3644  165.1955 C.ar    1  UNL1       -0.0222
      2 C         138.2543  138.5025  166.2449 C.ar    1  UNL1       -0.0046
      3 C         138.4602  139.4335  167.4029 C.ar    1  UNL1       -0.0045
      4 C         139.7289  140.2263  167.5115 C.ar    1  UNL1       -0.0181
      5 C         140.7917  140.0881  166.4621 C.ar    1  UNL1       -0.0045
      6 C         140.5858  139.1571  165.3042 C.ar    1  UNL1       -0.0046
      7 C         139.9347  141.1572  168.6695 C.3     1  UNL1        0.0735
      8 C         140.7227  142.0799  167.7876 C.3     1  UNL1        0.0094
      9 C         139.1468  140.2345  169.5514 C.3     1  UNL1        0.1485
     10 O         139.3527  141.1655  170.7094 O.3     1  UNL1       -0.3529
     11 C         140.1406  142.0882  169.8275 C.3     1  UNL1        0.1485
     12 C         139.1112  137.4334  164.0376 C.3     1  UNL1        0.0264
     13 C         139.7593  137.7248  162.7166 C.3     1  UNL1        0.0061
     14 C         138.9145  138.0780  161.5284 C.3     1  UNL1        0.0177
     15 C         137.6966  138.9362  161.7027 C.3     1  UNL1        0.0722
     16 C         137.5203  141.0436  163.2118 C.3     1  UNL1        0.0897
     17 N         137.8430  140.4175  161.8875 N.3     1  UNL1       -0.2703
     18 C         138.3123  141.2728  160.7480 C.3     1  UNL1        0.0897
@<TRIPOS>BOND
     1    16    17    1
     2    17    18    1
     3    17    15    1
     4    15    14    1
     5    14    13    1
     6    13    12    1
     7    12     1    1
     8     1     2   ar
     9     2     3   ar
    10     3     4   ar
    11     4     7    1
    12     7     8    1
    13     7     9    1
    14     9    10    1
    15    10    11    1
    16     4     5   ar
    17     5     6   ar
    18     6     1   ar
    19    11     7    1
@<TRIPOS>MOLECULE
*****
 18 19 0 0 0
SMALL
GASTEIGER

@<TRIPOS>ATOM
      1 C         138.4481  140.1321  165.2601 C.ar    1  UNL1       -0.0222
      2 C         137.7425  140.4512  163.9755 C.ar    1  UNL1       -0.0046
      3 C         137.9454  141.7849  163.3197 C.ar    1  UNL1       -0.0045
      4 C         138.8538  142.7995  163.9485 C.ar    1  UNL1       -0.0181
      5 C         139.5594  142.4803  165.2331 C.ar    1  UNL1       -0.0045
      6 C         139.3566  141.1466  165.8889 C.ar    1  UNL1       -0.0046
      7 C         139.0566  144.1332  163.2927 C.3     1  UNL1        0.0735
      8 C         139.0583  144.7949  164.6389 C.3     1  UNL1        0.0094
      9 C         139.0549  143.4715  161.9465 C.3     1  UNL1        0.1485
     10 O         139.2577  144.8052  161.2907 O.3     1  UNL1       -0.3529
     11 C         139.2594  145.4669  162.6369 C.3     1  UNL1        0.1485
     12 C         138.2453  138.7983  165.9159 C.3     1  UNL1        0.0264
     13 C         138.8093  137.5594  165.2860 C.3     1  UNL1        0.0061
     14 C         140.2145  137.5577  164.7614 C.3     1  UNL1        0.0177
     15 C         140.4635  137.6242  163.2836 C.3     1  UNL1        0.0722
     16 C         142.8189  138.0500  162.2735 C.3     1  UNL1        0.0897
     17 N         141.4913  138.5708  162.7381 N.3     1  UNL1       -0.2703
     18 C         141.1913  140.0384  162.6572 C.3     1  UNL1        0.0897
@<TRIPOS>BOND
     1    16    17    1
     2    17    18    1
     3    17    15    1
     4    15    14    1
     5    14    13    1
     6    13    12    1
     7    12     1    1
     8     1     2   ar
     9     2     3   ar
    10     3     4   ar
    11     4     7    1
    12     7     8    1
    13     7     9    1
    14     9    10    1
    15    10    11    1
    16     4     5   ar
    17     5     6   ar
    18     6     1   ar
    19    11     7    1
@<TRIPOS>MOLECULE
*****
 18 19 0 0 0
SMALL
GASTEIGER

@<TRIPOS>ATOM
      1 C         139.5489  141.0530  166.4353 C.ar    1  UNL1       -0.0222
      2 C         140.4437  142.2493  166.5693 C.ar    1  UNL1       -0.0046
      3 C         140.3674  143.3595  165.5635 C.ar    1  UNL1       -0.0045
      4 C         139.3962  143.2734  164.4236 C.ar    1  UNL1       -0.0181
      5 C         138.5013  142.0771  164.2896 C.ar    1  UNL1       -0.0045
      6 C         138.5777  140.9669  165.2954 C.ar    1  UNL1       -0.0046
      7 C         139.3199  144.3836  163.4178 C.3     1  UNL1        0.0735
      8 C         137.8506  144.1318  163.2514 C.3     1  UNL1        0.0094
      9 C         140.7892  144.6353  163.5842 C.3     1  UNL1        0.1485
     10 O         140.7129  145.7455  162.5784 O.3     1  UNL1       -0.3529
     11 C         139.2436  145.4938  162.4120 C.3     1  UNL1        0.1485
     12 C         139.6252  139.9428  167.4411 C.3     1  UNL1        0.0264
     13 C         139.4005  140.2319  168.8957 C.3     1  UNL1        0.0061
     14 C         140.5533  140.1939  169.8547 C.3     1  UNL1        0.0177
     15 C         140.7842  141.3391  170.7957 C.3     1  UNL1        0.0722
     16 C         142.8635  142.7653  170.1693 C.3     1  UNL1        0.0897
     17 N         141.3751  142.6204  170.2868 N.3     1  UNL1       -0.2703
     18 C         140.4777  143.7569  169.8954 C.3     1  UNL1        0.0897
@<TRIPOS>BOND
     1    16    17    1
     2    17    18    1
     3    17    15    1
     4    15    14    1
     5    14    13    1
     6    13    12    1
     7    12     1    1
     8     1     2   ar
     9     2     3   ar
    10     3     4   ar
    11     4     7    1
    12     7     8    1
    13     7     9    1
    14     9    10    1
    15    10    11    1
    16     4     5   ar
    17     5     6   ar
    18     6     1   ar
    19    11     7    1
@<TRIPOS>MOLECULE
*****
 18 19 0 0 0
SMALL
GASTEIGER

@<TRIPOS>ATOM
      1 C         139.4834  141.6629  165.6709 C.ar    1  UNL1       -0.0222
      2 C         140.1671  142.7812  166.4002 C.ar    1  UNL1       -0.0046
      3 C         140.5775  142.6026  167.8319 C.ar    1  UNL1       -0.0045
      4 C         140.3042  141.3057  168.5342 C.ar    1  UNL1       -0.0181
      5 C         139.6205  140.1874  167.8049 C.ar    1  UNL1       -0.0045
      6 C         139.2101  140.3660  166.3732 C.ar    1  UNL1       -0.0046
      7 C         140.7145  141.1271  169.9659 C.3     1  UNL1        0.0735
      8 C         141.3864  139.8335  169.6119 C.3     1  UNL1        0.0094
      9 C         140.0426  142.4206  170.3199 C.3     1  UNL1        0.1485
     10 O         140.4530  142.2420  171.7515 O.3     1  UNL1       -0.3529
     11 C         141.1249  140.9485  171.3976 C.3     1  UNL1        0.1485
     12 C         139.0731  141.8415  164.2392 C.3     1  UNL1        0.0264
     13 C         137.7748  141.2680  163.7540 C.3     1  UNL1        0.0061
     14 C         137.6083  140.9069  162.3076 C.3     1  UNL1        0.0177
     15 C         137.9009  139.5104  161.8448 C.3     1  UNL1        0.0722
     16 C         138.9210  137.6974  163.4012 C.3     1  UNL1        0.0897
     17 N         139.0975  138.7791  162.3771 N.3     1  UNL1       -0.2703
     18 C         140.4706  139.1295  161.8853 C.3     1  UNL1        0.0897
@<TRIPOS>BOND
     1    16    17    1
     2    17    18    1
     3    17    15    1
     4    15    14    1
     5    14    13    1
     6    13    12    1
     7    12     1    1
     8     1     2   ar
     9     2     3   ar
    10     3     4   ar
    11     4     7    1
    12     7     8    1
    13     7     9    1
    14     9    10    1
    15    10    11    1
    16     4     5   ar
    17     5     6   ar
    18     6     1   ar
    19    11     7    1
