@<TRIPOS>MOLECULE
*****
 43 48 0 0 0
SMALL
GASTEIGER

@<TRIPOS>ATOM
      1 O         137.3416  141.6084  162.0855 O.2     1  UNL1       -0.2733
      2 C         138.0995  142.8985  161.9795 C.2     1  UNL1        0.2425
      3 N         139.2546  143.0139  161.0295 N.am    1  UNL1       -0.3018
      4 H         139.7520  143.8606  160.9600 H       1  UNL1        0.1495
      5 C         139.6517  141.8392  160.1856 C.3     1  UNL1        0.1035
      6 C         139.7940  141.5907  158.7132 C.3     1  UNL1        0.0933
      7 N         140.2134  140.1778  158.9921 N.3     1  UNL1       -0.2711
      8 C         140.0711  140.4262  160.4646 C.3     1  UNL1        0.0933
      9 C         140.6106  139.0030  158.1482 C.3     1  UNL1        0.0576
     10 C         142.0103  138.4684  158.2180 C.3     1  UNL1        0.0163
     11 C         142.4075  137.2937  157.3741 C.3     1  UNL1        0.0057
     12 C         141.4049  136.6535  156.4602 C.3     1  UNL1        0.0225
     13 C         140.0051  137.1883  156.3904 C.3     1  UNL1        0.0057
     14 C         139.6080  138.3629  157.2343 C.3     1  UNL1        0.0163
     15 C         141.8020  135.4789  155.6163 C.ar    1  UNL1       -0.0193
     16 C         141.4819  135.4659  154.1508 C.ar    1  UNL1       -0.0010
     17 C         141.8789  134.2912  153.3067 C.ar    1  UNL1        0.0399
     18 C         142.5960  133.1295  153.9281 C.ar    1  UNL1        0.1764
     19 C         142.9160  133.1424  155.3935 C.ar    1  UNL1        0.1761
     20 C         142.5190  134.3170  156.2376 C.ar    1  UNL1        0.0359
     21 O         143.6266  131.8634  155.7240 O.3     1  UNL1       -0.4346
     22 C         143.7458  131.0601  154.4628 C.3     1  UNL1        0.4294
     23 O         143.1088  131.8425  153.3529 O.3     1  UNL1       -0.4346
     24 C         137.7023  144.0732  162.8235 C.3     1  UNL1        0.1747
     25 N         138.3549  144.2943  164.1559 N.pl3   1  UNL1       -0.3093
     26 H         137.9168  144.8619  164.8305 H       1  UNL1        0.1487
     27 C         139.6751  143.6505  164.4605 C.ar    1  UNL1        0.1500
     28 N         141.0272  144.2374  164.1826 N.ar    1  UNL1       -0.1543
     29 N         142.0626  143.2563  164.6468 N.ar    1  UNL1       -0.2471
     30 C         141.3504  142.0631  165.2116 C.ar    1  UNL1        0.0807
     31 C         141.8549  140.7863  165.8159 C.ar    1  UNL1        0.0188
     32 C         140.8837  139.7530  166.3050 C.ar    1  UNL1        0.0054
     33 C         139.4081  139.9966  166.1898 C.ar    1  UNL1        0.0716
     34 C         138.9037  141.2735  165.5856 C.ar    1  UNL1        0.0082
     35 C         139.8748  142.3067  165.0965 C.ar    1  UNL1        0.0503
     36 C         138.4370  138.9633  166.6790 C.3     1  UNL1        0.4186
     37 F         137.4659  137.9301  167.1681 F       1  UNL1       -0.1659
     38 F         138.3700  138.3740  165.3012 F       1  UNL1       -0.1659
     39 F         138.5039  139.5526  168.0567 F       1  UNL1       -0.1659
     40 C         143.5493  143.4368  164.5613 C.3     1  UNL1        0.1591
     41 C         144.1349  144.3590  163.5332 C.3     1  UNL1        0.1635
     42 O         143.2353  145.2318  162.7093 O.3     1  UNL1       -0.3799
     43 H         142.6843  144.6774  162.1350 H       1  UNL1        0.2105
@<TRIPOS>BOND
     1     1     2    2
     2     2    24    1
     3    24    25    1
     4    25    27    1
     5    27    28   ar
     6    28    29   ar
     7    29    40    1
     8    40    41    1
     9    41    42    1
    10    29    30   ar
    11    30    31   ar
    12    31    32   ar
    13    32    33   ar
    14    33    36    1
    15    36    37    1
    16    36    38    1
    17    36    39    1
    18    33    34   ar
    19    34    35   ar
    20     2     3   am
    21     3     5    1
    22     5     6    1
    23     6     7    1
    24     9     7    1
    25     9    10    1
    26    10    11    1
    27    11    12    1
    28    12    15    1
    29    15    16   ar
    30    16    17   ar
    31    17    18   ar
    32    18    19   ar
    33    19    20   ar
    34    19    21    1
    35    21    22    1
    36    22    23    1
    37    12    13    1
    38    13    14    1
    39     7     8    1
    40    35    27   ar
    41     8     5    1
    42    35    30   ar
    43    14     9    1
    44    20    15   ar
    45    23    18    1
    46    25    26    1
    47    42    43    1
    48     3     4    1
@<TRIPOS>MOLECULE
*****
 43 48 0 0 0
SMALL
GASTEIGER

@<TRIPOS>ATOM
      1 O         137.4232  141.3193  162.2775 O.2     1  UNL1       -0.2733
      2 C         138.1650  142.6196  162.1838 C.2     1  UNL1        0.2425
      3 N         139.2878  142.7735  161.2011 N.am    1  UNL1       -0.3018
      4 H         139.7746  143.6270  161.1396 H       1  UNL1        0.1495
      5 C         139.6687  141.6270  160.3121 C.3     1  UNL1        0.1035
      6 C         139.8456  141.4443  158.8338 C.3     1  UNL1        0.0933
      7 N         140.2074  140.0055  159.0549 N.3     1  UNL1       -0.2711
      8 C         140.0304  140.1880  160.5331 C.3     1  UNL1        0.0933
      9 C         140.5883  138.8589  158.1658 C.3     1  UNL1        0.0576
     10 C         139.5818  138.2793  157.2167 C.3     1  UNL1        0.0163
     11 C         139.9627  137.1328  156.3276 C.3     1  UNL1        0.0057
     12 C         141.3502  136.5659  156.3878 C.3     1  UNL1        0.0225
     13 C         142.3567  137.1456  157.3370 C.3     1  UNL1        0.0057
     14 C         141.9758  138.2920  158.2260 C.3     1  UNL1        0.0163
     15 C         141.7312  135.4194  155.4988 C.ar    1  UNL1       -0.0193
     16 C         141.3995  135.4617  154.0365 C.ar    1  UNL1       -0.0010
     17 C         141.7805  134.3153  153.1474 C.ar    1  UNL1        0.0399
     18 C         142.4932  133.1264  153.7207 C.ar    1  UNL1        0.1764
     19 C         142.8249  133.0840  155.1829 C.ar    1  UNL1        0.1761
     20 C         142.4439  134.2305  156.0720 C.ar    1  UNL1        0.0359
     21 O         143.5279  131.7885  155.4613 O.3     1  UNL1       -0.4346
     22 C         143.6307  131.0303  154.1711 C.3     1  UNL1        0.4294
     23 O         142.9912  131.8572  153.0953 O.3     1  UNL1       -0.4346
     24 C         137.7841  143.7661  163.0728 C.3     1  UNL1        0.1747
     25 N         138.8383  144.7068  163.5769 N.pl3   1  UNL1       -0.3093
     26 H         138.6160  145.6511  163.7444 H       1  UNL1        0.1487
     27 C         140.2311  144.2086  163.8256 C.ar    1  UNL1        0.1500
     28 N         141.3845  144.3019  162.8712 N.ar    1  UNL1       -0.1543
     29 N         142.5812  143.6806  163.5282 N.ar    1  UNL1       -0.2471
     30 C         142.1675  143.2032  164.8887 C.ar    1  UNL1        0.0807
     31 C         142.9257  142.5136  165.9839 C.ar    1  UNL1        0.0188
     32 C         142.2314  142.1503  167.2629 C.ar    1  UNL1        0.0054
     33 C         140.7789  142.4766  167.4468 C.ar    1  UNL1        0.0716
     34 C         140.0207  143.1663  166.3516 C.ar    1  UNL1        0.0082
     35 C         140.7150  143.5296  165.0725 C.ar    1  UNL1        0.0503
     36 C         140.0846  142.1133  168.7258 C.3     1  UNL1        0.4186
     37 F         139.3904  141.7499  170.0049 F       1  UNL1       -0.1659
     38 F         140.3173  143.5007  169.2463 F       1  UNL1       -0.1659
     39 F         139.8519  140.7259  168.2054 F       1  UNL1       -0.1659
     40 C         143.9513  143.5581  162.9298 C.3     1  UNL1        0.1591
     41 C         144.5307  142.2022  162.6540 C.3     1  UNL1        0.1635
     42 O         145.9718  142.0685  162.2598 O.3     1  UNL1       -0.3799
     43 H         146.1100  142.4834  161.3939 H       1  UNL1        0.2105
@<TRIPOS>BOND
     1     1     2    2
     2     2    24    1
     3    24    25    1
     4    25    27    1
     5    27    28   ar
     6    28    29   ar
     7    29    40    1
     8    40    41    1
     9    41    42    1
    10    29    30   ar
    11    30    31   ar
    12    31    32   ar
    13    32    33   ar
    14    33    36    1
    15    36    37    1
    16    36    38    1
    17    36    39    1
    18    33    34   ar
    19    34    35   ar
    20     2     3   am
    21     3     5    1
    22     5     6    1
    23     6     7    1
    24     9     7    1
    25     9    10    1
    26    10    11    1
    27    11    12    1
    28    12    15    1
    29    15    16   ar
    30    16    17   ar
    31    17    18   ar
    32    18    19   ar
    33    19    20   ar
    34    19    21    1
    35    21    22    1
    36    22    23    1
    37    12    13    1
    38    13    14    1
    39     7     8    1
    40    35    27   ar
    41     8     5    1
    42    35    30   ar
    43    14     9    1
    44    20    15   ar
    45    23    18    1
    46    25    26    1
    47    42    43    1
    48     3     4    1
@<TRIPOS>MOLECULE
*****
 43 48 0 0 0
SMALL
GASTEIGER

@<TRIPOS>ATOM
      1 O         138.7154  140.5642  159.2363 O.2     1  UNL1       -0.2733
      2 C         139.0110  139.8928  160.5447 C.2     1  UNL1        0.2425
      3 N         140.4317  139.6365  160.9520 N.am    1  UNL1       -0.3018
      4 H         140.6257  139.1959  161.8107 H       1  UNL1        0.1495
      5 C         141.5567  140.0516  160.0509 C.3     1  UNL1        0.1035
      6 C         142.6862  139.3395  159.3673 C.3     1  UNL1        0.0933
      7 N         143.1478  140.6387  158.7765 N.3     1  UNL1       -0.2711
      8 C         142.0183  141.3508  159.4600 C.3     1  UNL1        0.0933
      9 C         144.2728  141.0538  157.8754 C.3     1  UNL1        0.0576
     10 C         145.1503  142.2096  158.2549 C.3     1  UNL1        0.0163
     11 C         146.2753  142.6246  157.3537 C.3     1  UNL1        0.0057
     12 C         146.5229  141.8839  156.0731 C.3     1  UNL1        0.0225
     13 C         145.6453  140.7280  155.6936 C.3     1  UNL1        0.0057
     14 C         144.5203  140.3130  156.5947 C.3     1  UNL1        0.0163
     15 C         147.6478  142.2989  155.1719 C.ar    1  UNL1       -0.0193
     16 C         147.4140  143.3274  154.1053 C.ar    1  UNL1       -0.0010
     17 C         148.5389  143.7425  153.2041 C.ar    1  UNL1        0.0399
     18 C         149.8977  143.1290  153.3694 C.ar    1  UNL1        0.1764
     19 C         150.1315  142.1005  154.4359 C.ar    1  UNL1        0.1761
     20 C         149.0066  141.6854  155.3372 C.ar    1  UNL1        0.0359
     21 O         151.5676  141.6737  154.3613 O.3     1  UNL1       -0.4346
     22 C         152.2213  142.4384  153.2487 C.3     1  UNL1        0.4294
     23 O         151.1892  143.3379  152.6356 O.3     1  UNL1       -0.4346
     24 C         137.8860  139.4777  161.4458 C.3     1  UNL1        0.1747
     25 N         137.1010  140.5155  162.1922 N.pl3   1  UNL1       -0.3093
     26 H         136.1459  140.3688  162.3810 H       1  UNL1        0.1487
     27 C         137.7711  141.7766  162.6510 C.ar    1  UNL1        0.1500
     28 N         137.8114  143.0761  161.9028 N.ar    1  UNL1       -0.1543
     29 N         138.5838  144.0622  162.7279 N.ar    1  UNL1       -0.2471
     30 C         139.0209  143.3723  163.9861 C.ar    1  UNL1        0.0807
     31 C         139.8114  143.8478  165.1688 C.ar    1  UNL1        0.0188
     32 C         140.0996  142.9107  166.3040 C.ar    1  UNL1        0.0054
     33 C         139.5973  141.4981  166.2565 C.ar    1  UNL1        0.0716
     34 C         138.8068  141.0226  165.0737 C.ar    1  UNL1        0.0082
     35 C         138.5186  141.9596  163.9385 C.ar    1  UNL1        0.0503
     36 C         139.8855  140.5610  167.3918 C.3     1  UNL1        0.4186
     37 F         140.1738  139.6239  168.5270 F       1  UNL1       -0.1659
     38 F         140.1438  141.7320  168.2929 F       1  UNL1       -0.1659
     39 F         139.6273  139.3900  166.4907 F       1  UNL1       -0.1659
     40 C         138.8690  145.4880  162.3596 C.3     1  UNL1        0.1591
     41 C         140.2628  145.9032  161.9917 C.3     1  UNL1        0.1635
     42 O         141.2991  146.0821  163.0613 O.3     1  UNL1       -0.3799
     43 H         141.0520  146.8285  163.6293 H       1  UNL1        0.2105
@<TRIPOS>BOND
     1     1     2    2
     2     2    24    1
     3    24    25    1
     4    25    27    1
     5    27    28   ar
     6    28    29   ar
     7    29    40    1
     8    40    41    1
     9    41    42    1
    10    29    30   ar
    11    30    31   ar
    12    31    32   ar
    13    32    33   ar
    14    33    36    1
    15    36    37    1
    16    36    38    1
    17    36    39    1
    18    33    34   ar
    19    34    35   ar
    20     2     3   am
    21     3     5    1
    22     5     6    1
    23     6     7    1
    24     9     7    1
    25     9    10    1
    26    10    11    1
    27    11    12    1
    28    12    15    1
    29    15    16   ar
    30    16    17   ar
    31    17    18   ar
    32    18    19   ar
    33    19    20   ar
    34    19    21    1
    35    21    22    1
    36    22    23    1
    37    12    13    1
    38    13    14    1
    39     7     8    1
    40    35    27   ar
    41     8     5    1
    42    35    30   ar
    43    14     9    1
    44    20    15   ar
    45    23    18    1
    46    25    26    1
    47    42    43    1
    48     3     4    1
@<TRIPOS>MOLECULE
*****
 43 48 0 0 0
SMALL
GASTEIGER

@<TRIPOS>ATOM
      1 O         140.5142  144.3775  162.8545 O.2     1  UNL1       -0.2733
      2 C         139.1357  144.0922  162.3363 C.2     1  UNL1        0.2425
      3 N         138.9511  143.5781  160.9393 N.am    1  UNL1       -0.3018
      4 H         138.0464  143.3909  160.5992 H       1  UNL1        0.1495
      5 C         140.1450  143.3493  160.0605 C.3     1  UNL1        0.1035
      6 C         140.7977  142.1445  159.4503 C.3     1  UNL1        0.0933
      7 N         141.8335  143.0259  158.8177 N.3     1  UNL1       -0.2711
      8 C         141.1809  144.2308  159.4278 C.3     1  UNL1        0.0933
      9 C         143.0274  142.7971  157.9388 C.3     1  UNL1        0.0576
     10 C         144.3759  142.5616  158.5520 C.3     1  UNL1        0.0163
     11 C         145.5698  142.3328  157.6732 C.3     1  UNL1        0.0057
     12 C         145.4151  142.3396  156.1812 C.3     1  UNL1        0.0225
     13 C         144.0665  142.5751  155.5681 C.3     1  UNL1        0.0057
     14 C         142.8727  142.8038  156.4469 C.3     1  UNL1        0.0163
     15 C         146.6089  142.1108  155.3024 C.ar    1  UNL1       -0.0193
     16 C         146.4235  141.8674  153.8338 C.ar    1  UNL1       -0.0010
     17 C         147.6172  141.6386  152.9548 C.ar    1  UNL1        0.0399
     18 C         148.9964  141.6532  153.5443 C.ar    1  UNL1        0.1764
     19 C         149.1819  141.8966  155.0128 C.ar    1  UNL1        0.1761
     20 C         147.9881  142.1254  155.8918 C.ar    1  UNL1        0.0359
     21 O         150.6520  141.8542  155.3076 O.3     1  UNL1       -0.4346
     22 C         151.3751  141.5846  154.0213 C.3     1  UNL1        0.4294
     23 O         150.3519  141.4604  152.9315 O.3     1  UNL1       -0.4346
     24 C         137.9418  144.3210  163.2151 C.3     1  UNL1        0.1747
     25 N         137.7589  143.5035  164.4595 N.pl3   1  UNL1       -0.3093
     26 H         137.2632  143.8756  165.2244 H       1  UNL1        0.1487
     27 C         138.3310  142.1192  164.5383 C.ar    1  UNL1        0.1500
     28 N         137.9338  140.9511  163.6852 N.ar    1  UNL1       -0.1543
     29 N         138.7582  139.7699  164.1038 N.ar    1  UNL1       -0.2471
     30 C         139.6648  140.2079  165.2156 C.ar    1  UNL1        0.0807
     31 C         140.6966  139.4723  166.0181 C.ar    1  UNL1        0.0188
     32 C         141.4645  140.1886  167.0892 C.ar    1  UNL1        0.0054
     33 C         141.2005  141.6405  167.3578 C.ar    1  UNL1        0.0716
     34 C         140.1686  142.3762  166.5553 C.ar    1  UNL1        0.0082
     35 C         139.4008  141.6599  165.4842 C.ar    1  UNL1        0.0503
     36 C         141.9684  142.3569  168.4290 C.3     1  UNL1        0.4186
     37 F         142.7363  143.0731  169.5001 F       1  UNL1       -0.1659
     38 F         140.8052  143.2786  168.6465 F       1  UNL1       -0.1659
     39 F         143.1315  141.4351  168.2114 F       1  UNL1       -0.1659
     40 C         138.6882  138.3924  163.5141 C.3     1  UNL1        0.1591
     41 C         138.3351  138.2130  162.0672 C.3     1  UNL1        0.1635
     42 O         137.1534  138.9335  161.4887 O.3     1  UNL1       -0.3799
     43 H         136.3394  138.5995  161.8971 H       1  UNL1        0.2105
@<TRIPOS>BOND
     1     1     2    2
     2     2    24    1
     3    24    25    1
     4    25    27    1
     5    27    28   ar
     6    28    29   ar
     7    29    40    1
     8    40    41    1
     9    41    42    1
    10    29    30   ar
    11    30    31   ar
    12    31    32   ar
    13    32    33   ar
    14    33    36    1
    15    36    37    1
    16    36    38    1
    17    36    39    1
    18    33    34   ar
    19    34    35   ar
    20     2     3   am
    21     3     5    1
    22     5     6    1
    23     6     7    1
    24     9     7    1
    25     9    10    1
    26    10    11    1
    27    11    12    1
    28    12    15    1
    29    15    16   ar
    30    16    17   ar
    31    17    18   ar
    32    18    19   ar
    33    19    20   ar
    34    19    21    1
    35    21    22    1
    36    22    23    1
    37    12    13    1
    38    13    14    1
    39     7     8    1
    40    35    27   ar
    41     8     5    1
    42    35    30   ar
    43    14     9    1
    44    20    15   ar
    45    23    18    1
    46    25    26    1
    47    42    43    1
    48     3     4    1
@<TRIPOS>MOLECULE
*****
 43 48 0 0 0
SMALL
GASTEIGER

@<TRIPOS>ATOM
      1 O         139.8048  142.4344  159.3577 O.2     1  UNL1       -0.2733
      2 C         140.7454  143.5017  158.8822 C.2     1  UNL1        0.2425
      3 N         141.8766  143.1492  157.9625 N.am    1  UNL1       -0.3018
      4 H         142.4940  143.8497  157.6504 H       1  UNL1        0.1495
      5 C         142.0672  141.7292  157.5182 C.3     1  UNL1        0.1035
      6 C         142.7679  140.5274  158.0789 C.3     1  UNL1        0.0933
      7 N         142.3368  139.7211  156.8898 N.3     1  UNL1       -0.2711
      8 C         141.6360  140.9230  156.3290 C.3     1  UNL1        0.0933
      9 C         142.5274  138.3011  156.4455 C.3     1  UNL1        0.0576
     10 C         141.3933  137.3247  156.5474 C.3     1  UNL1        0.0163
     11 C         141.5839  135.9048  156.1031 C.3     1  UNL1        0.0057
     12 C         142.9086  135.4612  155.5569 C.3     1  UNL1        0.0225
     13 C         144.0427  136.4378  155.4549 C.3     1  UNL1        0.0057
     14 C         143.8521  137.8576  155.8992 C.3     1  UNL1        0.0163
     15 C         143.0994  134.0414  155.1125 C.ar    1  UNL1       -0.0193
     16 C         142.3822  133.5331  153.8970 C.ar    1  UNL1       -0.0010
     17 C         142.5729  132.1132  153.4526 C.ar    1  UNL1        0.0399
     18 C         143.4807  131.2015  154.2237 C.ar    1  UNL1        0.1764
     19 C         144.1978  131.7097  155.4392 C.ar    1  UNL1        0.1761
     20 C         144.0072  133.1296  155.8836 C.ar    1  UNL1        0.0359
     21 O         145.0226  130.5865  155.9942 O.3     1  UNL1       -0.4346
     22 C         144.8152  129.3841  155.1217 C.3     1  UNL1        0.4294
     23 O         143.8623  129.7642  154.0274 O.3     1  UNL1       -0.4346
     24 C         140.5548  144.9217  159.3265 C.3     1  UNL1        0.1747
     25 N         141.4559  145.5075  160.3730 N.pl3   1  UNL1       -0.3093
     26 H         141.6841  146.4648  160.3461 H       1  UNL1        0.1487
     27 C         142.0092  144.6348  161.4602 C.ar    1  UNL1        0.1500
     28 N         143.3264  143.9178  161.4307 N.ar    1  UNL1       -0.1543
     29 N         143.4737  143.1657  162.7202 N.ar    1  UNL1       -0.2471
     30 C         142.2475  143.4179  163.5466 C.ar    1  UNL1        0.0807
     31 C         141.8383  142.9381  164.9076 C.ar    1  UNL1        0.0188
     32 C         140.5239  143.3663  165.4898 C.ar    1  UNL1        0.0054
     33 C         139.6188  144.2742  164.7111 C.ar    1  UNL1        0.0716
     34 C         140.0281  144.7540  163.3501 C.ar    1  UNL1        0.0082
     35 C         141.3424  144.3259  162.7679 C.ar    1  UNL1        0.0503
     36 C         138.3044  144.7024  165.2934 C.3     1  UNL1        0.4186
     37 F         136.9900  145.1305  165.8757 F       1  UNL1       -0.1659
     38 F         138.9688  144.9430  166.6165 F       1  UNL1       -0.1659
     39 F         137.6399  144.4618  163.9704 F       1  UNL1       -0.1659
     40 C         144.6420  142.3114  163.1141 C.3     1  UNL1        0.1591
     41 C         144.8860  141.0063  162.4160 C.3     1  UNL1        0.1635
     42 O         144.9666  139.7353  163.2086 O.3     1  UNL1       -0.3799
     43 H         145.7482  139.7611  163.7824 H       1  UNL1        0.2105
@<TRIPOS>BOND
     1     1     2    2
     2     2    24    1
     3    24    25    1
     4    25    27    1
     5    27    28   ar
     6    28    29   ar
     7    29    40    1
     8    40    41    1
     9    41    42    1
    10    29    30   ar
    11    30    31   ar
    12    31    32   ar
    13    32    33   ar
    14    33    36    1
    15    36    37    1
    16    36    38    1
    17    36    39    1
    18    33    34   ar
    19    34    35   ar
    20     2     3   am
    21     3     5    1
    22     5     6    1
    23     6     7    1
    24     9     7    1
    25     9    10    1
    26    10    11    1
    27    11    12    1
    28    12    15    1
    29    15    16   ar
    30    16    17   ar
    31    17    18   ar
    32    18    19   ar
    33    19    20   ar
    34    19    21    1
    35    21    22    1
    36    22    23    1
    37    12    13    1
    38    13    14    1
    39     7     8    1
    40    35    27   ar
    41     8     5    1
    42    35    30   ar
    43    14     9    1
    44    20    15   ar
    45    23    18    1
    46    25    26    1
    47    42    43    1
    48     3     4    1
@<TRIPOS>MOLECULE
*****
 43 48 0 0 0
SMALL
GASTEIGER

@<TRIPOS>ATOM
      1 O         143.4965  143.0545  158.5188 O.2     1  UNL1       -0.2733
      2 C         142.2023  143.7239  158.1624 C.2     1  UNL1        0.2425
      3 N         141.1022  142.9342  157.5174 N.am    1  UNL1       -0.3018
      4 H         140.2528  143.3735  157.2835 H       1  UNL1        0.1495
      5 C         141.2963  141.4751  157.2287 C.3     1  UNL1        0.1035
      6 C         141.6369  140.6713  156.0090 C.3     1  UNL1        0.0933
      7 N         141.5708  139.4115  156.8207 N.3     1  UNL1       -0.2711
      8 C         141.2302  140.2153  158.0405 C.3     1  UNL1        0.0933
      9 C         141.7650  137.9524  156.5320 C.3     1  UNL1        0.0576
     10 C         140.7937  137.2269  155.6487 C.3     1  UNL1        0.0163
     11 C         140.9878  135.7678  155.3600 C.3     1  UNL1        0.0057
     12 C         142.1532  135.0342  155.9547 C.3     1  UNL1        0.0225
     13 C         143.1245  135.7598  156.8381 C.3     1  UNL1        0.0057
     14 C         142.9303  137.2188  157.1267 C.3     1  UNL1        0.0163
     15 C         142.3474  133.5751  155.6662 C.ar    1  UNL1       -0.0193
     16 C         143.7164  132.9685  155.7563 C.ar    1  UNL1       -0.0010
     17 C         143.9108  131.5094  155.4677 C.ar    1  UNL1        0.0399
     18 C         142.7361  130.6569  155.0891 C.ar    1  UNL1        0.1764
     19 C         141.3672  131.2634  154.9990 C.ar    1  UNL1        0.1761
     20 C         141.1728  132.7225  155.2876 C.ar    1  UNL1        0.0359
     21 O         140.4059  130.1815  154.6049 O.3     1  UNL1       -0.4346
     22 C         141.1808  128.9063  154.4513 C.3     1  UNL1        0.4294
     23 O         142.6209  129.2001  154.7506 O.3     1  UNL1       -0.4346
     24 C         142.0082  145.1830  158.4510 C.3     1  UNL1        0.1747
     25 N         141.7823  145.6453  159.8601 N.pl3   1  UNL1       -0.3093
     26 H         142.1758  146.4931  160.1691 H       1  UNL1        0.1487
     27 C         140.9567  144.8157  160.7984 C.ar    1  UNL1        0.1500
     28 N         139.5641  144.3198  160.5441 N.ar    1  UNL1       -0.1543
     29 N         139.1256  143.5340  161.7442 N.ar    1  UNL1       -0.2471
     30 C         140.2472  143.5441  162.7401 C.ar    1  UNL1        0.0807
     31 C         140.3842  142.9344  164.1037 C.ar    1  UNL1        0.0188
     32 C         141.6530  143.1169  164.8827 C.ar    1  UNL1        0.0054
     33 C         142.7847  143.9090  164.2981 C.ar    1  UNL1        0.0716
     34 C         142.6477  144.5187  162.9346 C.ar    1  UNL1        0.0082
     35 C         141.3789  144.3363  162.1555 C.ar    1  UNL1        0.0503
     36 C         144.0535  144.0914  165.0773 C.3     1  UNL1        0.4186
     37 F         145.3223  144.2739  165.8563 F       1  UNL1       -0.1659
     38 F         143.9491  142.6812  165.5776 F       1  UNL1       -0.1659
     39 F         144.1580  145.5016  164.5769 F       1  UNL1       -0.1659
     40 C         137.7984  142.8568  161.9179 C.3     1  UNL1        0.1591
     41 C         137.7403  141.4049  162.2905 C.3     1  UNL1        0.1635
     42 O         136.8704  140.9567  163.4273 O.3     1  UNL1       -0.3799
     43 H         137.2097  141.3241  164.2585 H       1  UNL1        0.2105
@<TRIPOS>BOND
     1     1     2    2
     2     2    24    1
     3    24    25    1
     4    25    27    1
     5    27    28   ar
     6    28    29   ar
     7    29    40    1
     8    40    41    1
     9    41    42    1
    10    29    30   ar
    11    30    31   ar
    12    31    32   ar
    13    32    33   ar
    14    33    36    1
    15    36    37    1
    16    36    38    1
    17    36    39    1
    18    33    34   ar
    19    34    35   ar
    20     2     3   am
    21     3     5    1
    22     5     6    1
    23     6     7    1
    24     9     7    1
    25     9    10    1
    26    10    11    1
    27    11    12    1
    28    12    15    1
    29    15    16   ar
    30    16    17   ar
    31    17    18   ar
    32    18    19   ar
    33    19    20   ar
    34    19    21    1
    35    21    22    1
    36    22    23    1
    37    12    13    1
    38    13    14    1
    39     7     8    1
    40    35    27   ar
    41     8     5    1
    42    35    30   ar
    43    14     9    1
    44    20    15   ar
    45    23    18    1
    46    25    26    1
    47    42    43    1
    48     3     4    1
@<TRIPOS>MOLECULE
*****
 43 48 0 0 0
SMALL
GASTEIGER

@<TRIPOS>ATOM
      1 O         137.8067  142.7340  161.3381 O.2     1  UNL1       -0.2733
      2 C         138.9869  143.3177  162.0567 C.2     1  UNL1        0.2425
      3 N         140.3643  142.7865  161.7915 N.am    1  UNL1       -0.3018
      4 H         141.1389  143.1696  162.2631 H       1  UNL1        0.1495
      5 C         140.5616  141.6715  160.8076 C.3     1  UNL1        0.1035
      6 C         140.3451  140.1874  160.8289 C.3     1  UNL1        0.0933
      7 N         140.8405  140.0948  159.4161 N.3     1  UNL1       -0.2711
      8 C         141.0570  141.5789  159.3947 C.3     1  UNL1        0.0933
      9 C         141.0377  138.9799  158.4323 C.3     1  UNL1        0.0576
     10 C         142.3682  138.2944  158.3323 C.3     1  UNL1        0.0163
     11 C         142.5654  137.1794  157.3484 C.3     1  UNL1        0.0057
     12 C         141.4322  136.7499  156.4645 C.3     1  UNL1        0.0225
     13 C         140.1017  137.4355  156.5645 C.3     1  UNL1        0.0057
     14 C         139.9045  138.5504  157.5484 C.3     1  UNL1        0.0163
     15 C         141.6293  135.6351  155.4807 C.ar    1  UNL1       -0.0193
     16 C         140.9517  135.6864  154.1433 C.ar    1  UNL1       -0.0010
     17 C         141.1488  134.5715  153.1593 C.ar    1  UNL1        0.0399
     18 C         142.0234  133.4053  153.5127 C.ar    1  UNL1        0.1764
     19 C         142.7009  133.3539  154.8499 C.ar    1  UNL1        0.1761
     20 C         142.5039  134.4687  155.8339 C.ar    1  UNL1        0.0359
     21 O         143.4987  132.0854  154.9169 O.3     1  UNL1       -0.4346
     22 C         143.3142  131.3529  153.6210 C.3     1  UNL1        0.4294
     23 O         142.4024  132.1686  152.7531 O.3     1  UNL1       -0.4346
     24 C         138.7897  144.4326  163.0406 C.3     1  UNL1        0.1747
     25 N         138.3041  144.1318  164.4277 N.pl3   1  UNL1       -0.3093
     26 H         137.4530  144.5118  164.7445 H       1  UNL1        0.1487
     27 C         139.1155  143.2520  165.3319 C.ar    1  UNL1        0.1500
     28 N         139.9183  143.7052  166.5151 N.ar    1  UNL1       -0.1543
     29 N         140.5654  142.4977  167.1261 N.ar    1  UNL1       -0.2471
     30 C         140.1624  141.2983  166.3206 C.ar    1  UNL1        0.0807
     31 C         140.4957  139.8419  166.4535 C.ar    1  UNL1        0.0188
     32 C         139.9329  138.8516  165.4776 C.ar    1  UNL1        0.0054
     33 C         139.0368  139.3177  164.3687 C.ar    1  UNL1        0.0716
     34 C         138.7035  140.7741  164.2357 C.ar    1  UNL1        0.0082
     35 C         139.2663  141.7644  165.2117 C.ar    1  UNL1        0.0503
     36 C         138.4740  138.3274  163.3927 C.3     1  UNL1        0.4186
     37 F         137.9112  137.3370  162.4168 F       1  UNL1       -0.1659
     38 F         137.6991  139.4249  162.7257 F       1  UNL1       -0.1659
     39 F         139.2488  137.2298  164.0596 F       1  UNL1       -0.1659
     40 C         141.4586  142.4909  168.3312 C.3     1  UNL1        0.1591
     41 C         141.0521  143.2323  169.5703 C.3     1  UNL1        0.1635
     42 O         139.9645  144.2632  169.5047 O.3     1  UNL1       -0.3799
     43 H         140.2584  145.0089  168.9584 H       1  UNL1        0.2105
@<TRIPOS>BOND
     1     1     2    2
     2     2    24    1
     3    24    25    1
     4    25    27    1
     5    27    28   ar
     6    28    29   ar
     7    29    40    1
     8    40    41    1
     9    41    42    1
    10    29    30   ar
    11    30    31   ar
    12    31    32   ar
    13    32    33   ar
    14    33    36    1
    15    36    37    1
    16    36    38    1
    17    36    39    1
    18    33    34   ar
    19    34    35   ar
    20     2     3   am
    21     3     5    1
    22     5     6    1
    23     6     7    1
    24     9     7    1
    25     9    10    1
    26    10    11    1
    27    11    12    1
    28    12    15    1
    29    15    16   ar
    30    16    17   ar
    31    17    18   ar
    32    18    19   ar
    33    19    20   ar
    34    19    21    1
    35    21    22    1
    36    22    23    1
    37    12    13    1
    38    13    14    1
    39     7     8    1
    40    35    27   ar
    41     8     5    1
    42    35    30   ar
    43    14     9    1
    44    20    15   ar
    45    23    18    1
    46    25    26    1
    47    42    43    1
    48     3     4    1
@<TRIPOS>MOLECULE
*****
 43 48 0 0 0
SMALL
GASTEIGER

@<TRIPOS>ATOM
      1 O         138.2744  143.1400  159.7296 O.2     1  UNL1       -0.2733
      2 C         139.2050  142.1234  159.1376 C.2     1  UNL1        0.2425
      3 N         140.0113  142.4640  157.9196 N.am    1  UNL1       -0.3018
      4 H         140.6221  141.7967  157.5310 H       1  UNL1        0.1495
      5 C         139.8871  143.8214  157.2934 C.3     1  UNL1        0.1035
      6 C         139.0899  144.3984  156.1614 C.3     1  UNL1        0.0933
      7 N         139.7114  145.7411  156.4080 N.3     1  UNL1       -0.2711
      8 C         140.5086  145.1642  157.5401 C.3     1  UNL1        0.0933
      9 C         139.5872  147.0985  155.7819 C.3     1  UNL1        0.0576
     10 C         138.7736  148.1636  156.4555 C.3     1  UNL1        0.0163
     11 C         138.6493  149.5210  155.8294 C.3     1  UNL1        0.0057
     12 C         139.3387  149.8134  154.5296 C.3     1  UNL1        0.0225
     13 C         140.1523  148.7482  153.8560 C.3     1  UNL1        0.0057
     14 C         140.2765  147.3909  154.4822 C.3     1  UNL1        0.0163
     15 C         139.2145  151.1707  153.9034 C.ar    1  UNL1       -0.0193
     16 C         139.8893  151.4574  152.5948 C.ar    1  UNL1       -0.0010
     17 C         139.7651  152.8148  151.9684 C.ar    1  UNL1        0.0399
     18 C         138.9663  153.8853  152.6508 C.ar    1  UNL1        0.1764
     19 C         138.2915  153.5986  153.9594 C.ar    1  UNL1        0.1761
     20 C         138.4156  152.2413  154.5857 C.ar    1  UNL1        0.0359
     21 O         137.5762  154.8432  154.3946 O.3     1  UNL1       -0.4346
     22 C         137.8089  155.8991  153.3549 C.3     1  UNL1        0.4294
     23 O         138.6680  155.3071  152.2771 O.3     1  UNL1       -0.4346
     24 C         139.3292  140.7660  159.7638 C.3     1  UNL1        0.1747
     25 N         138.7731  140.5187  161.1348 N.pl3   1  UNL1       -0.3093
     26 H         137.9716  139.9580  161.2471 H       1  UNL1        0.1487
     27 C         139.4380  141.1255  162.3346 C.ar    1  UNL1        0.1500
     28 N         140.3012  142.3522  162.3380 N.ar    1  UNL1       -0.1543
     29 N         140.7532  142.5970  163.7472 N.ar    1  UNL1       -0.2471
     30 C         140.1694  141.5216  164.6147 C.ar    1  UNL1        0.0807
     31 C         140.2729  141.2529  166.0868 C.ar    1  UNL1        0.0188
     32 C         139.5636  140.0748  166.6858 C.ar    1  UNL1        0.0054
     33 C         138.7508  139.1653  165.8128 C.ar    1  UNL1        0.0716
     34 C         138.6473  139.4340  164.3407 C.ar    1  UNL1        0.0082
     35 C         139.3566  140.6121  163.7417 C.ar    1  UNL1        0.0503
     36 C         138.0415  137.9872  166.4119 C.3     1  UNL1        0.4186
     37 F         137.3322  136.8091  167.0110 F       1  UNL1       -0.1659
     38 F         138.7955  137.0680  165.4973 F       1  UNL1       -0.1659
     39 F         137.2874  138.9063  167.3265 F       1  UNL1       -0.1659
     40 C         141.6343  143.7201  164.2080 C.3     1  UNL1        0.1591
     41 C         141.7634  144.9618  163.3763 C.3     1  UNL1        0.1635
     42 O         142.7000  144.9859  162.2049 O.3     1  UNL1       -0.3799
     43 H         143.6139  144.9058  162.5199 H       1  UNL1        0.2105
@<TRIPOS>BOND
     1     1     2    2
     2     2    24    1
     3    24    25    1
     4    25    27    1
     5    27    28   ar
     6    28    29   ar
     7    29    40    1
     8    40    41    1
     9    41    42    1
    10    29    30   ar
    11    30    31   ar
    12    31    32   ar
    13    32    33   ar
    14    33    36    1
    15    36    37    1
    16    36    38    1
    17    36    39    1
    18    33    34   ar
    19    34    35   ar
    20     2     3   am
    21     3     5    1
    22     5     6    1
    23     6     7    1
    24     9     7    1
    25     9    10    1
    26    10    11    1
    27    11    12    1
    28    12    15    1
    29    15    16   ar
    30    16    17   ar
    31    17    18   ar
    32    18    19   ar
    33    19    20   ar
    34    19    21    1
    35    21    22    1
    36    22    23    1
    37    12    13    1
    38    13    14    1
    39     7     8    1
    40    35    27   ar
    41     8     5    1
    42    35    30   ar
    43    14     9    1
    44    20    15   ar
    45    23    18    1
    46    25    26    1
    47    42    43    1
    48     3     4    1
@<TRIPOS>MOLECULE
*****
 43 48 0 0 0
SMALL
GASTEIGER

@<TRIPOS>ATOM
      1 O         137.7185  140.5386  160.3874 O.2     1  UNL1       -0.2733
      2 C         138.6888  141.6720  160.5419 C.2     1  UNL1        0.2425
      3 N         140.0433  141.5923  159.9024 N.am    1  UNL1       -0.3018
      4 H         140.6801  142.3362  160.0038 H       1  UNL1        0.1495
      5 C         140.4275  140.3790  159.1084 C.3     1  UNL1        0.1035
      6 C         140.9496  140.1398  157.7228 C.3     1  UNL1        0.0933
      7 N         140.9708  138.6631  157.9857 N.3     1  UNL1       -0.2711
      8 C         140.4487  138.9023  159.3714 C.3     1  UNL1        0.0933
      9 C         141.3550  137.4499  157.1917 C.3     1  UNL1        0.0576
     10 C         142.6621  136.7633  157.4564 C.3     1  UNL1        0.0163
     11 C         143.0463  135.5500  156.6624 C.3     1  UNL1        0.0057
     12 C         142.1234  135.0233  155.6037 C.3     1  UNL1        0.0225
     13 C         140.8163  135.7100  155.3391 C.3     1  UNL1        0.0057
     14 C         140.4321  136.9232  156.1330 C.3     1  UNL1        0.0163
     15 C         142.5075  133.8101  154.8097 C.ar    1  UNL1       -0.0193
     16 C         141.9865  133.6310  153.4145 C.ar    1  UNL1       -0.0010
     17 C         142.3705  132.4178  152.6204 C.ar    1  UNL1        0.0399
     18 C         143.2756  131.3837  153.2215 C.ar    1  UNL1        0.1764
     19 C         143.7967  131.5627  154.6166 C.ar    1  UNL1        0.1761
     20 C         143.4126  132.7760  155.4107 C.ar    1  UNL1        0.0359
     21 O         144.6656  130.3841  154.9417 O.3     1  UNL1       -0.4346
     22 C         144.6815  129.4765  153.7475 C.3     1  UNL1        0.4294
     23 O         143.8225  130.0943  152.6843 O.3     1  UNL1       -0.4346
     24 C         138.3046  142.8853  161.3358 C.3     1  UNL1        0.1747
     25 N         137.6845  142.7283  162.6927 N.pl3   1  UNL1       -0.3093
     26 H         136.7729  143.0609  162.8589 H       1  UNL1        0.1487
     27 C         138.4535  142.0645  163.7964 C.ar    1  UNL1        0.1500
     28 N         137.9730  140.9233  164.6431 N.ar    1  UNL1       -0.1543
     29 N         139.0605  140.5790  165.6171 N.ar    1  UNL1       -0.2471
     30 C         140.2131  141.5073  165.3724 C.ar    1  UNL1        0.0807
     31 C         141.5557  141.6352  166.0289 C.ar    1  UNL1        0.0188
     32 C         142.5231  142.6812  165.5601 C.ar    1  UNL1        0.0054
     33 C         142.1479  143.5994  164.4348 C.ar    1  UNL1        0.0716
     34 C         140.8053  143.4715  163.7783 C.ar    1  UNL1        0.0082
     35 C         139.8379  142.4254  164.2472 C.ar    1  UNL1        0.0503
     36 C         143.1154  144.6454  163.9660 C.3     1  UNL1        0.4186
     37 F         144.0829  145.6915  163.4971 F       1  UNL1       -0.1659
     38 F         144.2601  143.7312  164.2881 F       1  UNL1       -0.1659
     39 F         141.9708  145.5597  163.6438 F       1  UNL1       -0.1659
     40 C         139.0052  139.4963  166.6539 C.3     1  UNL1        0.1591
     41 C         138.0840  138.3270  166.4689 C.3     1  UNL1        0.1635
     42 O         136.9910  138.0687  167.4632 O.3     1  UNL1       -0.3799
     43 H         137.3816  137.8337  168.3193 H       1  UNL1        0.2105
@<TRIPOS>BOND
     1     1     2    2
     2     2    24    1
     3    24    25    1
     4    25    27    1
     5    27    28   ar
     6    28    29   ar
     7    29    40    1
     8    40    41    1
     9    41    42    1
    10    29    30   ar
    11    30    31   ar
    12    31    32   ar
    13    32    33   ar
    14    33    36    1
    15    36    37    1
    16    36    38    1
    17    36    39    1
    18    33    34   ar
    19    34    35   ar
    20     2     3   am
    21     3     5    1
    22     5     6    1
    23     6     7    1
    24     9     7    1
    25     9    10    1
    26    10    11    1
    27    11    12    1
    28    12    15    1
    29    15    16   ar
    30    16    17   ar
    31    17    18   ar
    32    18    19   ar
    33    19    20   ar
    34    19    21    1
    35    21    22    1
    36    22    23    1
    37    12    13    1
    38    13    14    1
    39     7     8    1
    40    35    27   ar
    41     8     5    1
    42    35    30   ar
    43    14     9    1
    44    20    15   ar
    45    23    18    1
    46    25    26    1
    47    42    43    1
    48     3     4    1
