@<TRIPOS>MOLECULE
*****
 32 35 0 0 0
SMALL
GASTEIGER

@<TRIPOS>ATOM
      1 C         142.8907  143.2581  160.3186 C.3     1  UNL1        0.0913
      2 N         142.8265  142.6841  161.7030 N.3     1  UNL1       -0.2673
      3 C         142.0954  141.3975  161.9483 C.3     1  UNL1        0.1035
      4 C         142.0312  140.8236  163.3327 C.3     1  UNL1        0.1470
      5 C         141.9669  140.2497  164.7171 C.3     1  UNL1        0.1037
      6 N         142.6338  140.9624  165.8561 N.3     1  UNL1       -0.2647
      7 C         143.3649  142.2490  165.6108 C.3     1  UNL1        0.1037
      8 C         143.4291  142.8229  164.2264 C.3     1  UNL1        0.1470
      9 C         143.4933  143.3968  162.8420 C.3     1  UNL1        0.1035
     10 O         142.6980  141.5363  164.4717 O.3     1  UNL1       -0.3530
     11 C         142.5696  140.3885  167.2405 C.3     1  UNL1        0.0993
     12 C         141.5783  140.9257  168.2299 C.ar    1  UNL1       -0.0061
     13 C         140.3765  140.1105  168.6055 C.ar    1  UNL1       -0.0029
     14 C         139.3852  140.6476  169.5948 C.ar    1  UNL1       -0.0003
     15 C         139.5957  142.0000  170.2085 C.ar    1  UNL1       -0.0000
     16 C         140.7975  142.8152  169.8329 C.ar    1  UNL1       -0.0003
     17 C         141.7888  142.2781  168.8436 C.ar    1  UNL1       -0.0029
     18 C         141.8563  144.2462  159.8676 C.3     1  UNL1        0.1084
     19 N         141.4736  145.3908  160.7585 N.3     1  UNL1       -0.1816
     20 H         142.2788  145.5816  161.3549 H       1  UNL1        0.1485
     21 S         140.2832  145.2715  161.6633 S.O2    1  UNL1        0.0451
     22 O         139.4842  144.6892  160.5353 O.2     1  UNL1       -0.1572
     23 O         141.0822  145.8537  162.7913 O.2     1  UNL1       -0.1572
     24 C         139.0928  145.1522  162.5681 C.3     1  UNL1        0.1952
     25 C         138.3422  141.3207  164.8055 C.ar    1  UNL1        0.0684
     26 C         139.2954  142.3380  165.3590 C.ar    1  UNL1        0.0100
     27 C         139.5456  143.6152  164.6132 C.ar    1  UNL1       -0.0018
     28 C         138.8426  143.8750  163.3139 C.ar    1  UNL1        0.0030
     29 C         137.8893  142.8577  162.7603 C.ar    1  UNL1       -0.0018
     30 C         137.6391  141.5805  163.5062 C.ar    1  UNL1        0.0100
     31 N         137.8418  138.7664  166.2972 N.1     1  UNL1       -0.1908
     32 C         138.0920  140.0435  165.5514 C.1     1  UNL1        0.1004
@<TRIPOS>BOND
     1    31    32    3
     2    32    25    1
     3    25    26   ar
     4    26    27   ar
     5    27    28   ar
     6    28    24    1
     7    24    21    1
     8    21    22    2
     9    21    23    2
    10    21    19    1
    11    19    18    1
    12    18     1    1
    13     1     2    1
    14     2     3    1
    15     3     4    1
    16     4     5    1
    17     5     6    1
    18     6    11    1
    19    11    12    1
    20    12    13   ar
    21    13    14   ar
    22    14    15   ar
    23    15    16   ar
    24    16    17   ar
    25     6     7    1
    26     7     8    1
    27     8     9    1
    28     8    10    1
    29    28    29   ar
    30    29    30   ar
    31    30    25   ar
    32     9     2    1
    33    10     4    1
    34    17    12   ar
    35    19    20    1
@<TRIPOS>MOLECULE
*****
 32 35 0 0 0
SMALL
GASTEIGER

@<TRIPOS>ATOM
      1 C         139.4769  145.4370  162.0725 C.3     1  UNL1        0.0913
      2 N         139.4893  144.3663  163.1231 N.3     1  UNL1       -0.2673
      3 C         138.6260  143.1499  162.9645 C.3     1  UNL1        0.1035
      4 C         138.6384  142.0793  164.0150 C.3     1  UNL1        0.1470
      5 C         138.6508  141.0086  165.0655 C.3     1  UNL1        0.1037
      6 N         139.5265  141.1543  166.2745 N.3     1  UNL1       -0.2647
      7 C         140.3899  142.3707  166.4331 C.3     1  UNL1        0.1037
      8 C         140.3775  143.4413  165.3826 C.3     1  UNL1        0.1470
      9 C         140.3651  144.5120  164.3321 C.3     1  UNL1        0.1035
     10 O         139.5142  142.2250  165.2240 O.3     1  UNL1       -0.3530
     11 C         139.5390  140.0837  167.3250 C.3     1  UNL1        0.0993
     12 C         140.3640  140.2595  168.5654 C.ar    1  UNL1       -0.0061
     13 C         139.7455  140.8435  169.8010 C.ar    1  UNL1       -0.0029
     14 C         140.5705  141.0193  171.0413 C.ar    1  UNL1       -0.0003
     15 C         142.0138  140.6112  171.0461 C.ar    1  UNL1       -0.0000
     16 C         142.6323  140.0272  169.8106 C.ar    1  UNL1       -0.0003
     17 C         141.8073  139.8514  168.5703 C.ar    1  UNL1       -0.0029
     18 C         140.3734  145.3234  160.8753 C.3     1  UNL1        0.1084
     19 N         141.8483  145.1209  161.0592 N.3     1  UNL1       -0.1816
     20 H         142.3152  145.7303  160.3875 H       1  UNL1        0.1485
     21 S         142.4444  143.7547  160.8916 S.O2    1  UNL1        0.0451
     22 O         141.3127  143.3722  159.9845 O.2     1  UNL1       -0.1572
     23 O         143.5761  144.1373  161.7987 O.2     1  UNL1       -0.1572
     24 C         143.0405  142.3886  160.7241 C.3     1  UNL1        0.1952
     25 C         143.6449  139.7418  164.3128 C.ar    1  UNL1        0.0684
     26 C         144.8116  140.1021  163.4417 C.ar    1  UNL1        0.0100
     27 C         144.6101  140.9844  162.2455 C.ar    1  UNL1       -0.0018
     28 C         143.2420  141.5063  161.9203 C.ar    1  UNL1        0.0030
     29 C         142.0752  141.1459  162.7915 C.ar    1  UNL1       -0.0018
     30 C         142.2766  140.2637  163.9878 C.ar    1  UNL1        0.0100
     31 N         144.0478  137.9772  166.7054 N.1     1  UNL1       -0.1908
     32 C         143.8463  138.8595  165.5091 C.1     1  UNL1        0.1004
@<TRIPOS>BOND
     1    31    32    3
     2    32    25    1
     3    25    26   ar
     4    26    27   ar
     5    27    28   ar
     6    28    24    1
     7    24    21    1
     8    21    22    2
     9    21    23    2
    10    21    19    1
    11    19    18    1
    12    18     1    1
    13     1     2    1
    14     2     3    1
    15     3     4    1
    16     4     5    1
    17     5     6    1
    18     6    11    1
    19    11    12    1
    20    12    13   ar
    21    13    14   ar
    22    14    15   ar
    23    15    16   ar
    24    16    17   ar
    25     6     7    1
    26     7     8    1
    27     8     9    1
    28     8    10    1
    29    28    29   ar
    30    29    30   ar
    31    30    25   ar
    32     9     2    1
    33    10     4    1
    34    17    12   ar
    35    19    20    1
@<TRIPOS>MOLECULE
*****
 32 35 0 0 0
SMALL
GASTEIGER

@<TRIPOS>ATOM
      1 C         138.3486  138.2486  161.5335 C.3     1  UNL1        0.0913
      2 N         139.2692  138.4163  162.7059 N.3     1  UNL1       -0.2673
      3 C         140.7397  138.1673  162.5465 C.3     1  UNL1        0.1035
      4 C         141.6602  138.3351  163.7189 C.3     1  UNL1        0.1470
      5 C         142.5807  138.5028  164.8914 C.3     1  UNL1        0.1037
      6 N         142.0306  138.9196  166.2232 N.3     1  UNL1       -0.2647
      7 C         140.5600  139.1686  166.3825 C.3     1  UNL1        0.1037
      8 C         139.6395  139.0008  165.2101 C.3     1  UNL1        0.1470
      9 C         138.7191  138.8331  164.0377 C.3     1  UNL1        0.1035
     10 O         141.1101  138.7518  165.0507 O.3     1  UNL1       -0.3530
     11 C         142.9511  139.0873  167.3956 C.3     1  UNL1        0.0993
     12 C         142.6558  140.1241  168.4387 C.ar    1  UNL1       -0.0061
     13 C         142.1391  139.7085  169.7841 C.ar    1  UNL1       -0.0029
     14 C         141.8438  140.7452  170.8272 C.ar    1  UNL1       -0.0003
     15 C         142.0652  142.1976  170.5247 C.ar    1  UNL1       -0.0000
     16 C         142.5819  142.6132  169.1793 C.ar    1  UNL1       -0.0003
     17 C         142.8772  141.5765  168.1362 C.ar    1  UNL1       -0.0029
     18 C         137.6126  139.4336  160.9823 C.3     1  UNL1        0.1084
     19 N         138.3764  140.6105  160.4516 N.3     1  UNL1       -0.1816
     20 H         139.3083  140.2727  160.2112 H       1  UNL1        0.1485
     21 S         138.5647  141.8292  161.3056 S.O2    1  UNL1        0.0451
     22 O         139.8051  142.1762  160.5369 O.2     1  UNL1       -0.1572
     23 O         137.3243  141.4823  162.0743 O.2     1  UNL1       -0.1572
     24 C         138.7530  143.0479  162.1595 C.3     1  UNL1        0.1952
     25 C         142.5986  143.6390  164.4203 C.ar    1  UNL1        0.0684
     26 C         142.1088  144.7024  163.4828 C.ar    1  UNL1        0.0100
     27 C         140.8269  144.5054  162.7292 C.ar    1  UNL1       -0.0018
     28 C         140.0348  143.2450  162.9131 C.ar    1  UNL1        0.0030
     29 C         140.5247  142.1814  163.8507 C.ar    1  UNL1       -0.0018
     30 C         141.8066  142.3785  164.6044 C.ar    1  UNL1        0.0100
     31 N         145.1624  144.0330  165.9276 N.1     1  UNL1       -0.1908
     32 C         143.8805  143.8360  165.1740 C.1     1  UNL1        0.1004
@<TRIPOS>BOND
     1    31    32    3
     2    32    25    1
     3    25    26   ar
     4    26    27   ar
     5    27    28   ar
     6    28    24    1
     7    24    21    1
     8    21    22    2
     9    21    23    2
    10    21    19    1
    11    19    18    1
    12    18     1    1
    13     1     2    1
    14     2     3    1
    15     3     4    1
    16     4     5    1
    17     5     6    1
    18     6    11    1
    19    11    12    1
    20    12    13   ar
    21    13    14   ar
    22    14    15   ar
    23    15    16   ar
    24    16    17   ar
    25     6     7    1
    26     7     8    1
    27     8     9    1
    28     8    10    1
    29    28    29   ar
    30    29    30   ar
    31    30    25   ar
    32     9     2    1
    33    10     4    1
    34    17    12   ar
    35    19    20    1
@<TRIPOS>MOLECULE
*****
 32 35 0 0 0
SMALL
GASTEIGER

@<TRIPOS>ATOM
      1 C         143.7542  137.9740  161.0383 C.3     1  UNL1        0.0913
      2 N         143.5938  138.8129  162.2715 N.3     1  UNL1       -0.2673
      3 C         144.4167  140.0547  162.4460 C.3     1  UNL1        0.1035
      4 C         144.2563  140.8935  163.6792 C.3     1  UNL1        0.1470
      5 C         144.0959  141.7324  164.9123 C.3     1  UNL1        0.1037
      6 N         143.1126  141.3293  165.9709 N.3     1  UNL1       -0.2647
      7 C         142.2897  140.0873  165.7963 C.3     1  UNL1        0.1037
      8 C         142.4501  139.2486  164.5632 C.3     1  UNL1        0.1470
      9 C         142.6105  138.4098  163.3301 C.3     1  UNL1        0.1035
     10 O         143.2730  140.4904  164.7378 O.3     1  UNL1       -0.3530
     11 C         142.9522  142.1681  167.2041 C.3     1  UNL1        0.0993
     12 C         142.1525  141.6519  168.3635 C.ar    1  UNL1       -0.0061
     13 C         142.8310  140.8877  169.4615 C.ar    1  UNL1       -0.0029
     14 C         142.0314  140.3716  170.6209 C.ar    1  UNL1       -0.0003
     15 C         140.5534  140.6196  170.6823 C.ar    1  UNL1       -0.0000
     16 C         139.8749  141.3838  169.5842 C.ar    1  UNL1       -0.0003
     17 C         140.6745  141.8999  168.4248 C.ar    1  UNL1       -0.0029
     18 C         142.6777  137.9625  159.9938 C.3     1  UNL1        0.1084
     19 N         141.9534  139.2301  159.6493 N.3     1  UNL1       -0.1816
     20 H         142.5399  140.0007  159.9695 H       1  UNL1        0.1485
     21 S         140.5773  139.4788  160.1921 S.O2    1  UNL1        0.0451
     22 O         141.0963  140.6512  160.9706 O.2     1  UNL1       -0.1572
     23 O         140.0583  138.3064  159.4136 O.2     1  UNL1       -0.1572
     24 C         139.2013  139.7275  160.7349 C.3     1  UNL1        0.1952
     25 C         138.3690  139.1299  165.1167 C.ar    1  UNL1        0.0684
     26 C         138.8479  137.9803  164.2807 C.ar    1  UNL1        0.0100
     27 C         139.1254  138.1795  162.8201 C.ar    1  UNL1       -0.0018
     28 C         138.9239  139.5283  162.1955 C.ar    1  UNL1        0.0030
     29 C         138.4450  140.6780  163.0316 C.ar    1  UNL1       -0.0018
     30 C         138.1675  140.4788  164.4922 C.ar    1  UNL1        0.0100
     31 N         137.8142  138.7316  168.0379 N.1     1  UNL1       -0.1908
     32 C         138.0916  138.9307  166.5773 C.1     1  UNL1        0.1004
@<TRIPOS>BOND
     1    31    32    3
     2    32    25    1
     3    25    26   ar
     4    26    27   ar
     5    27    28   ar
     6    28    24    1
     7    24    21    1
     8    21    22    2
     9    21    23    2
    10    21    19    1
    11    19    18    1
    12    18     1    1
    13     1     2    1
    14     2     3    1
    15     3     4    1
    16     4     5    1
    17     5     6    1
    18     6    11    1
    19    11    12    1
    20    12    13   ar
    21    13    14   ar
    22    14    15   ar
    23    15    16   ar
    24    16    17   ar
    25     6     7    1
    26     7     8    1
    27     8     9    1
    28     8    10    1
    29    28    29   ar
    30    29    30   ar
    31    30    25   ar
    32     9     2    1
    33    10     4    1
    34    17    12   ar
    35    19    20    1
@<TRIPOS>MOLECULE
*****
 32 35 0 0 0
SMALL
GASTEIGER

@<TRIPOS>ATOM
      1 C         139.2782  138.7193  159.9415 C.3     1  UNL1        0.0913
      2 N         139.1676  138.8345  161.4330 N.3     1  UNL1       -0.2673
      3 C         139.8518  137.8329  162.3154 C.3     1  UNL1        0.1035
      4 C         139.7411  137.9481  163.8068 C.3     1  UNL1        0.1470
      5 C         139.6305  138.0632  165.2983 C.3     1  UNL1        0.1037
      6 N         138.8356  139.1800  165.9074 N.3     1  UNL1       -0.2647
      7 C         138.1514  140.1816  165.0250 C.3     1  UNL1        0.1037
      8 C         138.2620  140.0664  163.5335 C.3     1  UNL1        0.1470
      9 C         138.3727  139.9512  162.0421 C.3     1  UNL1        0.1035
     10 O         138.9463  139.0648  164.4159 O.3     1  UNL1       -0.3530
     11 C         138.7249  139.2952  167.3989 C.3     1  UNL1        0.0993
     12 C         139.3698  140.4465  168.1121 C.ar    1  UNL1       -0.0061
     13 C         140.1251  141.4827  167.3338 C.ar    1  UNL1       -0.0029
     14 C         140.7699  142.6340  168.0470 C.ar    1  UNL1       -0.0003
     15 C         140.6593  142.7492  169.5385 C.ar    1  UNL1       -0.0000
     16 C         139.9040  141.7130  170.3167 C.ar    1  UNL1       -0.0003
     17 C         139.2592  140.5617  169.6036 C.ar    1  UNL1       -0.0029
     18 C         140.6262  138.7550  159.2844 C.3     1  UNL1        0.1084
     19 N         141.4021  140.0378  159.2338 N.3     1  UNL1       -0.1816
     20 H         141.7796  140.1165  158.2895 H       1  UNL1        0.1485
     21 S         142.5467  140.2598  160.1776 S.O2    1  UNL1        0.0451
     22 O         142.6488  138.7802  160.4016 O.2     1  UNL1       -0.1572
     23 O         142.4445  141.7394  159.9535 O.2     1  UNL1       -0.1572
     24 C         143.6912  140.4817  161.1213 C.3     1  UNL1        0.1952
     25 C         143.1565  139.7226  165.5245 C.ar    1  UNL1        0.0684
     26 C         144.3417  139.1521  164.8035 C.ar    1  UNL1        0.0100
     27 C         144.5200  139.4052  163.3358 C.ar    1  UNL1       -0.0018
     28 C         143.5130  140.2287  162.5890 C.ar    1  UNL1        0.0030
     29 C         142.3276  140.7992  163.3099 C.ar    1  UNL1       -0.0018
     30 C         142.1494  140.5461  164.7777 C.ar    1  UNL1        0.0100
     31 N         142.8000  139.2165  168.4599 N.1     1  UNL1       -0.1908
     32 C         142.9783  139.4695  166.9922 C.1     1  UNL1        0.1004
@<TRIPOS>BOND
     1    31    32    3
     2    32    25    1
     3    25    26   ar
     4    26    27   ar
     5    27    28   ar
     6    28    24    1
     7    24    21    1
     8    21    22    2
     9    21    23    2
    10    21    19    1
    11    19    18    1
    12    18     1    1
    13     1     2    1
    14     2     3    1
    15     3     4    1
    16     4     5    1
    17     5     6    1
    18     6    11    1
    19    11    12    1
    20    12    13   ar
    21    13    14   ar
    22    14    15   ar
    23    15    16   ar
    24    16    17   ar
    25     6     7    1
    26     7     8    1
    27     8     9    1
    28     8    10    1
    29    28    29   ar
    30    29    30   ar
    31    30    25   ar
    32     9     2    1
    33    10     4    1
    34    17    12   ar
    35    19    20    1
@<TRIPOS>MOLECULE
*****
 32 35 0 0 0
SMALL
GASTEIGER

@<TRIPOS>ATOM
      1 C         143.7349  142.7441  159.6424 C.3     1  UNL1        0.0913
      2 N         143.0064  142.8985  160.9446 N.3     1  UNL1       -0.2673
      3 C         141.5656  143.3157  160.9531 C.3     1  UNL1        0.1035
      4 C         140.8372  143.4700  162.2552 C.3     1  UNL1        0.1470
      5 C         140.1087  143.6243  163.5573 C.3     1  UNL1        0.1037
      6 N         140.8210  143.3614  164.8510 N.3     1  UNL1       -0.2647
      7 C         142.2619  142.9442  164.8424 C.3     1  UNL1        0.1037
      8 C         142.9903  142.7899  163.5403 C.3     1  UNL1        0.1470
      9 C         143.7187  142.6355  162.2382 C.3     1  UNL1        0.1035
     10 O         141.5495  143.2071  163.5488 O.3     1  UNL1       -0.3530
     11 C         140.0926  143.5157  166.1531 C.3     1  UNL1        0.0993
     12 C         140.0864  142.3921  167.1468 C.ar    1  UNL1       -0.0061
     13 C         140.4821  142.6481  168.5708 C.ar    1  UNL1       -0.0029
     14 C         140.4760  141.5245  169.5645 C.ar    1  UNL1       -0.0003
     15 C         140.0742  140.1450  169.1342 C.ar    1  UNL1       -0.0000
     16 C         139.6785  139.8889  167.7102 C.ar    1  UNL1       -0.0003
     17 C         139.6846  141.0125  166.7165 C.ar    1  UNL1       -0.0029
     18 C         143.8931  141.3849  159.0281 C.3     1  UNL1        0.1084
     19 N         142.6989  140.4921  158.8646 N.3     1  UNL1       -0.1816
     20 H         141.8736  141.0786  158.9884 H       1  UNL1        0.1485
     21 S         142.5233  139.3026  159.7614 S.O2    1  UNL1        0.0451
     22 O         143.8283  138.7443  159.2764 O.2     1  UNL1       -0.1572
     23 O         141.2183  139.8610  160.2464 O.2     1  UNL1       -0.1572
     24 C         142.3477  138.1132  160.6582 C.3     1  UNL1        0.1952
     25 C         142.8529  138.5560  165.1078 C.ar    1  UNL1        0.0684
     26 C         143.8522  139.1726  164.1744 C.ar    1  UNL1        0.0100
     27 C         143.6838  139.0250  162.6913 C.ar    1  UNL1       -0.0018
     28 C         142.5161  138.2608  162.1414 C.ar    1  UNL1        0.0030
     29 C         141.5166  137.6442  163.0747 C.ar    1  UNL1       -0.0018
     30 C         141.6850  137.7918  164.5579 C.ar    1  UNL1        0.0100
     31 N         143.1897  138.8513  168.0742 N.1     1  UNL1       -0.1908
     32 C         143.0213  138.7037  166.5910 C.1     1  UNL1        0.1004
@<TRIPOS>BOND
     1    31    32    3
     2    32    25    1
     3    25    26   ar
     4    26    27   ar
     5    27    28   ar
     6    28    24    1
     7    24    21    1
     8    21    22    2
     9    21    23    2
    10    21    19    1
    11    19    18    1
    12    18     1    1
    13     1     2    1
    14     2     3    1
    15     3     4    1
    16     4     5    1
    17     5     6    1
    18     6    11    1
    19    11    12    1
    20    12    13   ar
    21    13    14   ar
    22    14    15   ar
    23    15    16   ar
    24    16    17   ar
    25     6     7    1
    26     7     8    1
    27     8     9    1
    28     8    10    1
    29    28    29   ar
    30    29    30   ar
    31    30    25   ar
    32     9     2    1
    33    10     4    1
    34    17    12   ar
    35    19    20    1
@<TRIPOS>MOLECULE
*****
 32 35 0 0 0
SMALL
GASTEIGER

@<TRIPOS>ATOM
      1 C         137.5437  139.8750  159.9923 C.3     1  UNL1        0.0913
      2 N         137.8603  139.7916  161.4562 N.3     1  UNL1       -0.2673
      3 C         138.3761  138.5099  162.0401 C.3     1  UNL1        0.1035
      4 C         138.6926  138.4265  163.5040 C.3     1  UNL1        0.1470
      5 C         139.0092  138.3430  164.9679 C.3     1  UNL1        0.1037
      6 N         138.8099  139.5414  165.8478 N.3     1  UNL1       -0.2647
      7 C         138.2940  140.8232  165.2638 C.3     1  UNL1        0.1037
      8 C         137.9775  140.9066  163.7999 C.3     1  UNL1        0.1470
      9 C         137.6610  140.9900  162.3361 C.3     1  UNL1        0.1035
     10 O         138.4933  139.6248  164.3839 O.3     1  UNL1       -0.3530
     11 C         139.1264  139.4580  167.3116 C.3     1  UNL1        0.0993
     12 C         139.9875  140.5051  167.9536 C.ar    1  UNL1       -0.0061
     13 C         141.2899  140.8965  167.3206 C.ar    1  UNL1       -0.0029
     14 C         142.1510  141.9435  167.9626 C.ar    1  UNL1       -0.0003
     15 C         141.7097  142.5992  169.2375 C.ar    1  UNL1       -0.0000
     16 C         140.4074  142.2078  169.8704 C.ar    1  UNL1       -0.0003
     17 C         139.5463  141.1607  169.2285 C.ar    1  UNL1       -0.0029
     18 C         138.6030  140.2997  159.0190 C.3     1  UNL1        0.1084
     19 N         140.0515  140.1979  159.3951 N.3     1  UNL1       -0.1816
     20 H         140.1456  139.3696  159.9829 H       1  UNL1        0.1485
     21 S         140.7176  141.3255  160.1263 S.O2    1  UNL1        0.0451
     22 O         140.2396  142.2870  159.0790 O.2     1  UNL1       -0.1572
     23 O         141.1957  140.3640  161.1736 O.2     1  UNL1       -0.1572
     24 C         141.3837  142.4532  160.8575 C.3     1  UNL1        0.1952
     25 C         139.3078  144.4191  164.3325 C.ar    1  UNL1        0.0684
     26 C         140.5311  143.5829  164.5651 C.ar    1  UNL1        0.0100
     27 C         141.2231  142.9276  163.4068 C.ar    1  UNL1       -0.0018
     28 C         140.6917  143.1085  162.0158 C.ar    1  UNL1        0.0030
     29 C         139.4684  143.9448  161.7831 C.ar    1  UNL1       -0.0018
     30 C         138.7764  144.6001  162.9414 C.ar    1  UNL1        0.0100
     31 N         137.9238  145.7298  166.6491 N.1     1  UNL1       -0.1908
     32 C         138.6158  145.0745  165.4908 C.1     1  UNL1        0.1004
@<TRIPOS>BOND
     1    31    32    3
     2    32    25    1
     3    25    26   ar
     4    26    27   ar
     5    27    28   ar
     6    28    24    1
     7    24    21    1
     8    21    22    2
     9    21    23    2
    10    21    19    1
    11    19    18    1
    12    18     1    1
    13     1     2    1
    14     2     3    1
    15     3     4    1
    16     4     5    1
    17     5     6    1
    18     6    11    1
    19    11    12    1
    20    12    13   ar
    21    13    14   ar
    22    14    15   ar
    23    15    16   ar
    24    16    17   ar
    25     6     7    1
    26     7     8    1
    27     8     9    1
    28     8    10    1
    29    28    29   ar
    30    29    30   ar
    31    30    25   ar
    32     9     2    1
    33    10     4    1
    34    17    12   ar
    35    19    20    1
@<TRIPOS>MOLECULE
*****
 32 35 0 0 0
SMALL
GASTEIGER

@<TRIPOS>ATOM
      1 C         141.0984  142.9008  160.1755 C.3     1  UNL1        0.0913
      2 N         140.9506  142.8849  161.6682 N.3     1  UNL1       -0.2673
      3 C         139.5869  142.7912  162.2859 C.3     1  UNL1        0.1035
      4 C         139.4392  142.7754  163.7785 C.3     1  UNL1        0.1470
      5 C         139.2915  142.7595  165.2712 C.3     1  UNL1        0.1037
      6 N         140.5074  142.8374  166.1460 N.3     1  UNL1       -0.2647
      7 C         141.8711  142.9311  165.5283 C.3     1  UNL1        0.1037
      8 C         142.0188  142.9469  164.0357 C.3     1  UNL1        0.1470
      9 C         142.1665  142.9628  162.5431 C.3     1  UNL1        0.1035
     10 O         140.6552  142.8532  164.6534 O.3     1  UNL1       -0.3530
     11 C         140.3597  142.8215  167.6386 C.3     1  UNL1        0.0993
     12 C         141.2167  141.9112  168.4675 C.ar    1  UNL1       -0.0061
     13 C         140.8142  140.4805  168.6698 C.ar    1  UNL1       -0.0029
     14 C         141.6711  139.5702  169.4986 C.ar    1  UNL1       -0.0003
     15 C         142.9306  140.0907  170.1252 C.ar    1  UNL1       -0.0000
     16 C         143.3332  141.5215  169.9229 C.ar    1  UNL1       -0.0003
     17 C         142.4762  142.4317  169.0941 C.ar    1  UNL1       -0.0029
     18 C         141.0697  141.6140  159.4053 C.3     1  UNL1        0.1084
     19 N         142.1414  140.5868  159.6208 N.3     1  UNL1       -0.1816
     20 H         142.4698  140.3056  158.6969 H       1  UNL1        0.1485
     21 S         141.8319  139.3263  160.3725 S.O2    1  UNL1        0.0451
     22 O         142.7999  139.7285  161.4454 O.2     1  UNL1       -0.1572
     23 O         140.8640  138.9241  159.2996 O.2     1  UNL1       -0.1572
     24 C         141.5224  138.0658  161.1243 C.3     1  UNL1        0.1952
     25 C         139.0229  138.2315  164.8626 C.ar    1  UNL1        0.0684
     26 C         138.6309  139.0404  163.6618 C.ar    1  UNL1        0.0100
     27 C         139.4641  138.9852  162.4157 C.ar    1  UNL1       -0.0018
     28 C         140.6893  138.1210  162.3704 C.ar    1  UNL1        0.0030
     29 C         141.0814  137.3121  163.5713 C.ar    1  UNL1       -0.0018
     30 C         140.2482  137.3673  164.8174 C.ar    1  UNL1        0.0100
     31 N         137.3566  138.3421  167.3548 N.1     1  UNL1       -0.1908
     32 C         138.1897  138.2868  166.1087 C.1     1  UNL1        0.1004
@<TRIPOS>BOND
     1    31    32    3
     2    32    25    1
     3    25    26   ar
     4    26    27   ar
     5    27    28   ar
     6    28    24    1
     7    24    21    1
     8    21    22    2
     9    21    23    2
    10    21    19    1
    11    19    18    1
    12    18     1    1
    13     1     2    1
    14     2     3    1
    15     3     4    1
    16     4     5    1
    17     5     6    1
    18     6    11    1
    19    11    12    1
    20    12    13   ar
    21    13    14   ar
    22    14    15   ar
    23    15    16   ar
    24    16    17   ar
    25     6     7    1
    26     7     8    1
    27     8     9    1
    28     8    10    1
    29    28    29   ar
    30    29    30   ar
    31    30    25   ar
    32     9     2    1
    33    10     4    1
    34    17    12   ar
    35    19    20    1
@<TRIPOS>MOLECULE
*****
 32 35 0 0 0
SMALL
GASTEIGER

@<TRIPOS>ATOM
      1 C         144.4954  142.5289  159.4329 C.3     1  UNL1        0.0913
      2 N         144.2572  141.8358  160.7418 N.3     1  UNL1       -0.2673
      3 C         144.8026  142.4211  162.0106 C.3     1  UNL1        0.1035
      4 C         144.5644  141.7280  163.3193 C.3     1  UNL1        0.1470
      5 C         144.3263  141.0348  164.6281 C.3     1  UNL1        0.1037
      6 N         143.5428  139.7564  164.6680 N.3     1  UNL1       -0.2647
      7 C         142.9974  139.1710  163.3991 C.3     1  UNL1        0.1037
      8 C         143.2355  139.8642  162.0904 C.3     1  UNL1        0.1470
      9 C         143.4737  140.5573  160.7817 C.3     1  UNL1        0.1035
     10 O         143.7809  140.4495  163.3592 O.3     1  UNL1       -0.3530
     11 C         143.3046  139.0632  165.9767 C.3     1  UNL1        0.0993
     12 C         142.0688  139.3653  166.7715 C.ar    1  UNL1       -0.0061
     13 C         142.1666  139.6005  168.2497 C.ar    1  UNL1       -0.0029
     14 C         140.9309  139.9026  169.0444 C.ar    1  UNL1       -0.0003
     15 C         139.5973  139.9695  168.3610 C.ar    1  UNL1       -0.0000
     16 C         139.4995  139.7343  166.8828 C.ar    1  UNL1       -0.0003
     17 C         140.7352  139.4322  166.0880 C.ar    1  UNL1       -0.0029
     18 C         143.3340  142.9057  158.5616 C.3     1  UNL1        0.1084
     19 N         142.5643  144.1627  158.8399 N.3     1  UNL1       -0.1816
     20 H         143.1933  144.7877  159.3439 H       1  UNL1        0.1485
     21 S         141.2898  144.1027  159.6286 S.O2    1  UNL1        0.0451
     22 O         141.0097  142.7382  159.0721 O.2     1  UNL1       -0.1572
     23 O         141.5699  145.4671  160.1851 O.2     1  UNL1       -0.1572
     24 C         140.0154  144.0426  160.4173 C.3     1  UNL1        0.1952
     25 C         140.1565  143.5207  164.8847 C.ar    1  UNL1        0.0684
     26 C         141.0130  142.6622  164.0019 C.ar    1  UNL1        0.0100
     27 C         140.9660  142.8362  162.5128 C.ar    1  UNL1       -0.0018
     28 C         140.0624  143.8686  161.9065 C.ar    1  UNL1        0.0030
     29 C         139.2059  144.7271  162.7893 C.ar    1  UNL1       -0.0018
     30 C         139.2529  144.5532  164.2784 C.ar    1  UNL1        0.0100
     31 N         140.2507  143.1727  167.8630 N.1     1  UNL1       -0.1908
     32 C         140.2036  143.3467  166.3739 C.1     1  UNL1        0.1004
@<TRIPOS>BOND
     1    31    32    3
     2    32    25    1
     3    25    26   ar
     4    26    27   ar
     5    27    28   ar
     6    28    24    1
     7    24    21    1
     8    21    22    2
     9    21    23    2
    10    21    19    1
    11    19    18    1
    12    18     1    1
    13     1     2    1
    14     2     3    1
    15     3     4    1
    16     4     5    1
    17     5     6    1
    18     6    11    1
    19    11    12    1
    20    12    13   ar
    21    13    14   ar
    22    14    15   ar
    23    15    16   ar
    24    16    17   ar
    25     6     7    1
    26     7     8    1
    27     8     9    1
    28     8    10    1
    29    28    29   ar
    30    29    30   ar
    31    30    25   ar
    32     9     2    1
    33    10     4    1
    34    17    12   ar
    35    19    20    1
