@<TRIPOS>MOLECULE
*****
 33 36 0 0 0
SMALL
GASTEIGER

@<TRIPOS>ATOM
      1 N         136.8428  141.1664  163.0304 N.3     1  UNL1       -0.3162
      2 C         138.0688  140.3802  162.6719 C.3     1  UNL1        0.1166
      3 C         139.3287  139.5822  162.8330 C.3     1  UNL1        0.0739
      4 C         140.0655  139.0912  161.6223 C.3     1  UNL1        0.2039
      5 N         139.5425  139.3982  160.2503 N.pl3   1  UNL1       -0.1931
      6 C         138.2827  140.1962  160.0891 C.3     1  UNL1        0.2039
      7 C         137.5459  140.6872  161.3000 C.3     1  UNL1        0.0739
      8 H         136.7668  141.2337  164.0454 H       1  UNL1        0.1192
      9 H         136.0172  140.6974  162.6579 H       1  UNL1        0.1192
     10 C         140.2794  138.9071  159.0396 C.2     1  UNL1        0.3205
     11 N         139.6009  137.9829  158.0723 N.2     1  UNL1        0.0097
     12 C         140.3377  137.4919  156.8616 C.2     1  UNL1        0.4717
     13 N         141.7531  137.9250  156.6180 N.2     1  UNL1        0.0158
     14 C         142.4315  138.8493  157.5853 C.2     1  UNL1        0.3714
     15 N         143.8089  139.4428  157.6085 N.2     1  UNL1       -0.0339
     16 C         143.9233  140.3007  158.8336 C.2     1  UNL1        0.2323
     17 C         142.6166  140.2374  159.5675 C.2     1  UNL1        0.0486
     18 C         141.6946  139.3403  158.7960 C.3     1  UNL1        0.2428
     19 C         138.1661  140.3463  164.1684 C.2     1  UNL1        0.2353
     20 O         138.0453  141.6165  164.9569 O.2     1  UNL1       -0.2737
     21 N         138.3841  139.0419  164.8762 N.am    1  UNL1       -0.2990
     22 H         138.4634  138.2082  164.3587 H       1  UNL1        0.1498
     23 CA        138.4814  139.0078  166.3727 C.3     1  UNL1        0.1236
     24 C         139.6623  139.6248  167.0618 C.ar    1  UNL1       -0.0020
     25 C         139.5023  140.2347  168.4227 C.ar    1  UNL1       -0.0017
     26 C         140.6833  140.8517  169.1117 C.ar    1  UNL1        0.0111
     27 C         142.0243  140.8587  168.4397 C.ar    1  UNL1        0.0577
     28 CL        143.2052  141.4756  169.1287 Cl      1  UNL1       -0.0822
     29 C         142.1843  140.2487  167.0788 C.ar    1  UNL1        0.0111
     30 C         141.0034  139.6318  166.3897 C.ar    1  UNL1       -0.0017
     31 C         137.3977  138.3568  167.1801 C.3     1  UNL1        0.1611
     32 O         137.2541  136.8637  167.1768 O.3     1  UNL1       -0.3799
     33 H         136.9974  136.5655  166.2902 H       1  UNL1        0.2105
@<TRIPOS>BOND
     1     1     2    1
     2     2    19    1
     3    19    20    2
     4    19    21   am
     5    21    23    1
     6    23    31    1
     7    31    32    1
     8    23    24    1
     9    24    25   ar
    10    25    26   ar
    11    26    27   ar
    12    27    28    1
    13    27    29   ar
    14    29    30   ar
    15     2     3    1
    16     3     4    1
    17     4     5    1
    18     5    10    1
    19    10    11    2
    20    11    12    1
    21    12    13    2
    22    13    14    1
    23    14    15    2
    24    15    16    1
    25    16    17    2
    26    17    18    1
    27     5     6    1
    28     6     7    1
    29     7     2    1
    30    30    24   ar
    31    18    10    1
    32    18    14    1
    33     1     8    1
    34     1     9    1
    35    21    22    1
    36    32    33    1
@<TRIPOS>MOLECULE
*****
 33 36 0 0 0
SMALL
GASTEIGER

@<TRIPOS>ATOM
      1 N         138.6218  137.6745  162.8946 N.3     1  UNL1       -0.3162
      2 C         139.5870  138.8170  163.0088 C.3     1  UNL1        0.1166
      3 C         140.4796  139.8517  163.6274 C.3     1  UNL1        0.0739
      4 C         141.2459  140.8002  162.7539 C.3     1  UNL1        0.2039
      5 N         141.1196  140.7140  161.2616 N.pl3   1  UNL1       -0.1931
      6 C         140.2270  139.6793  160.6430 C.3     1  UNL1        0.2039
      7 C         139.4607  138.7308  161.5166 C.3     1  UNL1        0.0739
      8 H         138.3762  137.3424  163.8272 H       1  UNL1        0.1192
      9 H         139.0536  136.9161  162.3665 H       1  UNL1        0.1192
     10 C         141.8859  141.6625  160.3880 C.2     1  UNL1        0.3205
     11 N         143.1070  141.1888  159.6570 N.2     1  UNL1        0.0097
     12 C         143.8733  142.1372  158.7835 C.2     1  UNL1        0.4717
     13 N         143.4186  143.5595  158.6410 N.2     1  UNL1        0.0158
     14 C         142.1975  144.0333  159.3720 C.2     1  UNL1        0.3714
     15 N         141.5141  145.3675  159.4251 N.2     1  UNL1       -0.0339
     16 C         140.3254  145.2436  160.3315 C.2     1  UNL1        0.2323
     17 C         140.2741  143.8328  160.8386 C.2     1  UNL1        0.0486
     18 C         141.4311  143.0848  160.2455 C.3     1  UNL1        0.2428
     19 C         139.3781  138.5064  164.4613 C.2     1  UNL1        0.2353
     20 O         139.8768  137.2114  165.0307 O.2     1  UNL1       -0.2737
     21 N         138.6705  139.4910  165.3445 N.am    1  UNL1       -0.2990
     22 H         138.3431  140.3409  164.9707 H       1  UNL1        0.1498
     23 CA        138.4616  139.1805  166.7971 C.3     1  UNL1        0.1236
     24 C         139.3785  139.7675  167.8289 C.ar    1  UNL1       -0.0020
     25 C         140.8141  140.0388  167.4892 C.ar    1  UNL1       -0.0017
     26 C         141.7309  140.6258  168.5210 C.ar    1  UNL1        0.0111
     27 C         141.2123  140.9417  169.8925 C.ar    1  UNL1        0.0577
     28 CL        142.1291  141.5288  170.9243 Cl      1  UNL1       -0.0822
     29 C         139.7767  140.6705  170.2322 C.ar    1  UNL1        0.0111
     30 C         138.8597  140.0834  169.2004 C.ar    1  UNL1       -0.0017
     31 C         137.3358  138.2829  167.2178 C.3     1  UNL1        0.1611
     32 O         137.4414  136.8008  167.0124 O.3     1  UNL1       -0.3799
     33 H         137.4575  136.6064  166.0622 H       1  UNL1        0.2105
@<TRIPOS>BOND
     1     1     2    1
     2     2    19    1
     3    19    20    2
     4    19    21   am
     5    21    23    1
     6    23    31    1
     7    31    32    1
     8    23    24    1
     9    24    25   ar
    10    25    26   ar
    11    26    27   ar
    12    27    28    1
    13    27    29   ar
    14    29    30   ar
    15     2     3    1
    16     3     4    1
    17     4     5    1
    18     5    10    1
    19    10    11    2
    20    11    12    1
    21    12    13    2
    22    13    14    1
    23    14    15    2
    24    15    16    1
    25    16    17    2
    26    17    18    1
    27     5     6    1
    28     6     7    1
    29     7     2    1
    30    30    24   ar
    31    18    10    1
    32    18    14    1
    33     1     8    1
    34     1     9    1
    35    21    22    1
    36    32    33    1
@<TRIPOS>MOLECULE
*****
 33 36 0 0 0
SMALL
GASTEIGER

@<TRIPOS>ATOM
      1 N         141.3831  145.4675  163.9065 N.3     1  UNL1       -0.3162
      2 C         141.7023  144.8460  162.5793 C.3     1  UNL1        0.1166
      3 C         142.3778  143.9889  161.5501 C.3     1  UNL1        0.0739
      4 C         141.9163  144.0257  160.1234 C.3     1  UNL1        0.2039
      5 N         140.7791  144.9196  159.7257 N.pl3   1  UNL1       -0.1931
      6 C         140.1036  145.7766  160.7549 C.3     1  UNL1        0.2039
      7 C         140.5652  145.7397  162.1816 C.3     1  UNL1        0.0739
      8 H         142.0149  145.0968  164.6163 H       1  UNL1        0.1192
      9 H         140.4199  145.2492  164.1614 H       1  UNL1        0.1192
     10 C         140.3176  144.9563  158.2990 C.2     1  UNL1        0.3205
     11 N         140.7265  146.0913  157.4075 N.2     1  UNL1        0.0097
     12 C         140.2650  146.1281  155.9808 C.2     1  UNL1        0.4717
     13 N         139.3946  145.0299  155.4454 N.2     1  UNL1        0.0158
     14 C         138.9857  143.8950  156.3369 C.2     1  UNL1        0.3714
     15 N         138.1407  142.6802  156.0916 N.2     1  UNL1       -0.0339
     16 C         138.0800  141.8926  157.3667 C.2     1  UNL1        0.2323
     17 C         138.8875  142.6206  158.4002 C.2     1  UNL1        0.0486
     18 C         139.4473  143.8582  157.7637 C.3     1  UNL1        0.2428
     19 C         142.7285  144.1680  163.4378 C.2     1  UNL1        0.2353
     20 O         143.6243  144.9840  164.3219 O.2     1  UNL1       -0.2737
     21 N         142.8590  142.6739  163.4121 N.am    1  UNL1       -0.2990
     22 H         142.2711  142.1383  162.8318 H       1  UNL1        0.1498
     23 CA        143.8853  141.9958  164.2706 C.3     1  UNL1        0.1236
     24 C         143.4712  141.3270  165.5478 C.ar    1  UNL1       -0.0020
     25 C         143.1733  142.1524  166.7643 C.ar    1  UNL1       -0.0017
     26 C         142.7592  141.4835  168.0415 C.ar    1  UNL1        0.0111
     27 C         142.6429  139.9893  168.1022 C.ar    1  UNL1        0.0577
     28 CL        142.2289  139.3204  169.3792 Cl      1  UNL1       -0.0822
     29 C         142.9408  139.1639  166.8857 C.ar    1  UNL1        0.0111
     30 C         143.3550  139.8327  165.6085 C.ar    1  UNL1       -0.0017
     31 C         145.3256  141.9866  163.8519 C.3     1  UNL1        0.1611
     32 O         145.6845  142.0661  162.3976 O.3     1  UNL1       -0.3799
     33 H         145.3787  141.2646  161.9448 H       1  UNL1        0.2105
@<TRIPOS>BOND
     1     1     2    1
     2     2    19    1
     3    19    20    2
     4    19    21   am
     5    21    23    1
     6    23    31    1
     7    31    32    1
     8    23    24    1
     9    24    25   ar
    10    25    26   ar
    11    26    27   ar
    12    27    28    1
    13    27    29   ar
    14    29    30   ar
    15     2     3    1
    16     3     4    1
    17     4     5    1
    18     5    10    1
    19    10    11    2
    20    11    12    1
    21    12    13    2
    22    13    14    1
    23    14    15    2
    24    15    16    1
    25    16    17    2
    26    17    18    1
    27     5     6    1
    28     6     7    1
    29     7     2    1
    30    30    24   ar
    31    18    10    1
    32    18    14    1
    33     1     8    1
    34     1     9    1
    35    21    22    1
    36    32    33    1
@<TRIPOS>MOLECULE
*****
 33 36 0 0 0
SMALL
GASTEIGER

@<TRIPOS>ATOM
      1 N         140.3901  137.1587  163.1576 N.3     1  UNL1       -0.3162
      2 C         139.7006  138.4444  162.8090 C.3     1  UNL1        0.1166
      3 C         138.9791  139.7484  162.9799 C.3     1  UNL1        0.0739
      4 C         138.5890  140.5531  161.7757 C.3     1  UNL1        0.2039
      5 N         138.9204  140.0540  160.4005 N.pl3   1  UNL1       -0.1931
      6 C         139.6418  138.7500  160.2295 C.3     1  UNL1        0.2039
      7 C         140.0319  137.9452  161.4338 C.3     1  UNL1        0.0739
      8 H         140.4086  137.0469  164.1713 H       1  UNL1        0.1192
      9 H         141.3452  137.1773  162.8001 H       1  UNL1        0.1192
     10 C         138.5302  140.8588  159.1963 C.2     1  UNL1        0.3205
     11 N         137.4615  140.3555  158.2720 N.2     1  UNL1        0.0097
     12 C         137.0713  141.1603  157.0679 C.2     1  UNL1        0.4717
     13 N         137.7500  142.4685  156.7879 N.2     1  UNL1        0.0158
     14 C         138.8188  142.9717  157.7123 C.2     1  UNL1        0.3714
     15 N         139.6577  144.2150  157.6940 N.2     1  UNL1       -0.0339
     16 C         140.5664  144.1786  158.8869 C.2     1  UNL1        0.2323
     17 C         140.2890  142.9128  159.6424 C.2     1  UNL1        0.0486
     18 C         139.2089  142.1669  158.9165 C.3     1  UNL1        0.2428
     19 C         139.6087  138.4971  164.3052 C.2     1  UNL1        0.2353
     20 O         140.7111  137.9233  165.1451 O.2     1  UNL1       -0.2737
     21 N         138.4143  139.1236  164.9615 N.am    1  UNL1       -0.2990
     22 H         137.6907  139.5002  164.4103 H       1  UNL1        0.1498
     23 CA        138.3223  139.1764  166.4578 C.3     1  UNL1        0.1236
     24 C         139.1735  140.1420  167.2279 C.ar    1  UNL1       -0.0020
     25 C         139.8794  141.2554  166.5125 C.ar    1  UNL1       -0.0017
     26 C         140.7306  142.2210  167.2827 C.ar    1  UNL1        0.0111
     27 C         140.8759  142.0732  168.7683 C.ar    1  UNL1        0.0577
     28 CL        141.7270  143.0387  169.5384 Cl      1  UNL1       -0.0822
     29 C         140.1699  140.9597  169.4837 C.ar    1  UNL1        0.0111
     30 C         139.3187  139.9941  168.7136 C.ar    1  UNL1       -0.0017
     31 C         137.3792  138.2635  167.1839 C.3     1  UNL1        0.1611
     32 O         137.4760  136.7789  166.9926 O.3     1  UNL1       -0.3799
     33 H         137.2460  136.5552  166.0772 H       1  UNL1        0.2105
@<TRIPOS>BOND
     1     1     2    1
     2     2    19    1
     3    19    20    2
     4    19    21   am
     5    21    23    1
     6    23    31    1
     7    31    32    1
     8    23    24    1
     9    24    25   ar
    10    25    26   ar
    11    26    27   ar
    12    27    28    1
    13    27    29   ar
    14    29    30   ar
    15     2     3    1
    16     3     4    1
    17     4     5    1
    18     5    10    1
    19    10    11    2
    20    11    12    1
    21    12    13    2
    22    13    14    1
    23    14    15    2
    24    15    16    1
    25    16    17    2
    26    17    18    1
    27     5     6    1
    28     6     7    1
    29     7     2    1
    30    30    24   ar
    31    18    10    1
    32    18    14    1
    33     1     8    1
    34     1     9    1
    35    21    22    1
    36    32    33    1
@<TRIPOS>MOLECULE
*****
 33 36 0 0 0
SMALL
GASTEIGER

@<TRIPOS>ATOM
      1 N         141.8576  145.6662  163.5814 N.3     1  UNL1       -0.3162
      2 C         141.7699  144.6362  162.4946 C.3     1  UNL1        0.1166
      3 C         142.0320  143.3789  161.7195 C.3     1  UNL1        0.0739
      4 C         141.3171  143.1336  160.4240 C.3     1  UNL1        0.2039
      5 N         140.3398  144.1456  159.9033 N.pl3   1  UNL1       -0.1931
      6 C         140.0776  145.4028  160.6783 C.3     1  UNL1        0.2039
      7 C         140.7927  145.6481  161.9739 C.3     1  UNL1        0.0739
      8 H         142.5236  145.3573  164.2896 H       1  UNL1        0.1192
      9 H         140.9396  145.7888  164.0086 H       1  UNL1        0.1192
     10 C         139.6248  143.9003  158.6077 C.2     1  UNL1        0.3205
     11 N         138.4758  142.9374  158.5558 N.2     1  UNL1        0.0097
     12 C         137.7609  142.6921  157.2603 C.2     1  UNL1        0.4717
     13 N         138.1948  143.4096  156.0165 N.2     1  UNL1        0.0158
     14 C         139.3438  144.3725  156.0684 C.2     1  UNL1        0.3714
     15 N         139.9919  145.2194  155.0136 N.2     1  UNL1       -0.0339
     16 C         141.1076  145.9882  155.6574 C.2     1  UNL1        0.2323
     17 C         141.1489  145.6164  157.1100 C.2     1  UNL1        0.0486
     18 C         140.0588  144.6178  157.3640 C.3     1  UNL1        0.2428
     19 C         142.7776  143.9819  163.3926 C.2     1  UNL1        0.2353
     20 O         143.6531  144.8216  164.2748 O.2     1  UNL1       -0.2737
     21 N         142.9096  142.4878  163.4084 N.am    1  UNL1       -0.2990
     22 H         142.3350  141.9367  162.8294 H       1  UNL1        0.1498
     23 CA        143.9173  141.8334  164.3064 C.3     1  UNL1        0.1236
     24 C         143.4804  141.2250  165.6061 C.ar    1  UNL1       -0.0020
     25 C         143.3467  139.7361  165.7298 C.ar    1  UNL1       -0.0017
     26 C         142.9098  139.1278  167.0294 C.ar    1  UNL1        0.0111
     27 C         142.6066  140.0083  168.2053 C.ar    1  UNL1        0.0577
     28 CL        142.1697  139.4000  169.5049 Cl      1  UNL1       -0.0822
     29 C         142.7403  141.4972  168.0816 C.ar    1  UNL1        0.0111
     30 C         143.1772  142.1056  166.7820 C.ar    1  UNL1       -0.0017
     31 C         145.3618  141.7875  163.9048 C.3     1  UNL1        0.1611
     32 O         145.7582  142.1041  162.4932 O.3     1  UNL1       -0.3799
     33 H         145.4025  141.4261  161.8977 H       1  UNL1        0.2105
@<TRIPOS>BOND
     1     1     2    1
     2     2    19    1
     3    19    20    2
     4    19    21   am
     5    21    23    1
     6    23    31    1
     7    31    32    1
     8    23    24    1
     9    24    25   ar
    10    25    26   ar
    11    26    27   ar
    12    27    28    1
    13    27    29   ar
    14    29    30   ar
    15     2     3    1
    16     3     4    1
    17     4     5    1
    18     5    10    1
    19    10    11    2
    20    11    12    1
    21    12    13    2
    22    13    14    1
    23    14    15    2
    24    15    16    1
    25    16    17    2
    26    17    18    1
    27     5     6    1
    28     6     7    1
    29     7     2    1
    30    30    24   ar
    31    18    10    1
    32    18    14    1
    33     1     8    1
    34     1     9    1
    35    21    22    1
    36    32    33    1
@<TRIPOS>MOLECULE
*****
 33 36 0 0 0
SMALL
GASTEIGER

@<TRIPOS>ATOM
      1 N         139.3579  145.5360  161.5827 N.3     1  UNL1       -0.3162
      2 C         139.6360  144.1025  161.9254 C.3     1  UNL1        0.1166
      3 C         140.1009  142.6835  161.7821 C.3     1  UNL1        0.0739
      4 C         139.9315  141.7203  162.9194 C.3     1  UNL1        0.2039
      5 N         139.2971  142.1760  164.2001 N.pl3   1  UNL1       -0.1931
      6 C         138.8323  143.5949  164.3434 C.3     1  UNL1        0.2039
      7 C         139.0017  144.5581  163.2061 C.3     1  UNL1        0.0739
      8 H         139.6763  145.7263  160.6325 H       1  UNL1        0.1192
      9 H         139.8528  146.1438  162.2353 H       1  UNL1        0.1192
     10 C         139.1277  141.2127  165.3374 C.2     1  UNL1        0.3205
     11 N         138.1962  140.0452  165.1990 N.2     1  UNL1        0.0097
     12 C         138.0268  139.0820  166.3362 C.2     1  UNL1        0.4717
     13 N         138.7889  139.2862  167.6120 N.2     1  UNL1        0.0158
     14 C         139.7204  140.4537  167.7504 C.2     1  UNL1        0.3714
     15 N         140.5980  140.9092  168.8784 N.2     1  UNL1       -0.0339
     16 C         141.3098  142.1541  168.4382 C.2     1  UNL1        0.2323
     17 C         140.8721  142.4679  167.0382 C.2     1  UNL1        0.0486
     18 C         139.8898  141.4170  166.6131 C.3     1  UNL1        0.2428
     19 C         140.1737  144.1446  160.5258 C.2     1  UNL1        0.2353
     20 O         140.9828  142.9970  159.9982 O.2     1  UNL1       -0.2737
     21 N         139.9022  145.3344  159.6536 N.am    1  UNL1       -0.2990
     22 H         139.3712  146.0877  159.9999 H       1  UNL1        0.1498
     23 CA        140.4399  145.3766  158.2539 C.3     1  UNL1        0.1236
     24 C         139.5417  145.0582  157.0955 C.ar    1  UNL1       -0.0020
     25 C         139.0598  143.6536  156.8840 C.ar    1  UNL1       -0.0017
     26 C         138.1616  143.3353  155.7256 C.ar    1  UNL1        0.0111
     27 C         137.7452  144.4216  154.7788 C.ar    1  UNL1        0.0577
     28 CL        136.8470  144.1033  153.6205 Cl      1  UNL1       -0.0822
     29 C         138.2270  145.8262  154.9903 C.ar    1  UNL1        0.0111
     30 C         139.1253  146.1446  156.1487 C.ar    1  UNL1       -0.0017
     31 C         141.8758  145.7372  158.0126 C.3     1  UNL1        0.1611
     32 O         142.9331  144.6739  158.0530 O.3     1  UNL1       -0.3799
     33 H         143.0033  144.3218  158.9542 H       1  UNL1        0.2105
@<TRIPOS>BOND
     1     1     2    1
     2     2    19    1
     3    19    20    2
     4    19    21   am
     5    21    23    1
     6    23    31    1
     7    31    32    1
     8    23    24    1
     9    24    25   ar
    10    25    26   ar
    11    26    27   ar
    12    27    28    1
    13    27    29   ar
    14    29    30   ar
    15     2     3    1
    16     3     4    1
    17     4     5    1
    18     5    10    1
    19    10    11    2
    20    11    12    1
    21    12    13    2
    22    13    14    1
    23    14    15    2
    24    15    16    1
    25    16    17    2
    26    17    18    1
    27     5     6    1
    28     6     7    1
    29     7     2    1
    30    30    24   ar
    31    18    10    1
    32    18    14    1
    33     1     8    1
    34     1     9    1
    35    21    22    1
    36    32    33    1
@<TRIPOS>MOLECULE
*****
 33 36 0 0 0
SMALL
GASTEIGER

@<TRIPOS>ATOM
      1 N         137.6033  143.2350  162.1222 N.3     1  UNL1       -0.3162
      2 C         138.9459  143.0681  162.7697 C.3     1  UNL1        0.1166
      3 C         140.4301  143.1390  162.9758 C.3     1  UNL1        0.0739
      4 C         141.0407  142.5832  164.2280 C.3     1  UNL1        0.2039
      5 N         140.1673  141.9565  165.2743 N.pl3   1  UNL1       -0.1931
      6 C         138.6832  141.8856  165.0682 C.3     1  UNL1        0.2039
      7 C         138.0726  142.4415  163.8159 C.3     1  UNL1        0.0739
      8 H         137.7157  143.6997  161.2212 H       1  UNL1        0.1192
      9 H         137.0036  143.7999  162.7236 H       1  UNL1        0.1192
     10 C         140.7780  141.4007  166.5265 C.2     1  UNL1        0.3205
     11 N         140.4023  141.9720  167.8616 N.2     1  UNL1        0.0097
     12 C         141.0130  141.4162  169.1138 C.2     1  UNL1        0.4717
     13 N         141.9994  140.2892  169.0310 N.2     1  UNL1        0.0158
     14 C         142.3751  139.7179  167.6959 C.2     1  UNL1        0.3714
     15 N         143.3117  138.6137  167.3043 N.2     1  UNL1       -0.0339
     16 C         143.2799  138.4870  165.8101 C.2     1  UNL1        0.2323
     17 C         142.3236  139.5129  165.2781 C.2     1  UNL1        0.0486
     18 C         141.7644  140.2737  166.4437 C.3     1  UNL1        0.2428
     19 C         139.3531  143.7527  161.4987 C.2     1  UNL1        0.2353
     20 O         139.2332  145.2430  161.3778 O.2     1  UNL1       -0.2737
     21 N         139.8801  142.9469  160.3485 N.am    1  UNL1       -0.2990
     22 H         139.9587  141.9688  160.4278 H       1  UNL1        0.1498
     23 CA        140.2873  143.6315  159.0774 C.3     1  UNL1        0.1236
     24 C         139.3706  143.6157  157.8902 C.ar    1  UNL1       -0.0020
     25 C         138.2386  142.6334  157.8297 C.ar    1  UNL1       -0.0017
     26 C         137.3220  142.6176  156.6424 C.ar    1  UNL1        0.0111
     27 C         137.5373  143.5841  155.5157 C.ar    1  UNL1        0.0577
     28 CL        136.6208  143.5683  154.3285 Cl      1  UNL1       -0.0822
     29 C         138.6693  144.5663  155.5762 C.ar    1  UNL1        0.0111
     30 C         139.5860  144.5822  156.7634 C.ar    1  UNL1       -0.0017
     31 C         141.6111  144.3318  158.9936 C.3     1  UNL1        0.1611
     32 O         141.8557  145.5723  159.8007 O.3     1  UNL1       -0.3799
     33 H         141.2759  146.2830  159.4851 H       1  UNL1        0.2105
@<TRIPOS>BOND
     1     1     2    1
     2     2    19    1
     3    19    20    2
     4    19    21   am
     5    21    23    1
     6    23    31    1
     7    31    32    1
     8    23    24    1
     9    24    25   ar
    10    25    26   ar
    11    26    27   ar
    12    27    28    1
    13    27    29   ar
    14    29    30   ar
    15     2     3    1
    16     3     4    1
    17     4     5    1
    18     5    10    1
    19    10    11    2
    20    11    12    1
    21    12    13    2
    22    13    14    1
    23    14    15    2
    24    15    16    1
    25    16    17    2
    26    17    18    1
    27     5     6    1
    28     6     7    1
    29     7     2    1
    30    30    24   ar
    31    18    10    1
    32    18    14    1
    33     1     8    1
    34     1     9    1
    35    21    22    1
    36    32    33    1
@<TRIPOS>MOLECULE
*****
 33 36 0 0 0
SMALL
GASTEIGER

@<TRIPOS>ATOM
      1 N         137.3173  140.2049  162.9349 N.3     1  UNL1       -0.3162
      2 C         138.7093  140.7210  162.7209 C.3     1  UNL1        0.1166
      3 C         140.1748  140.9551  162.9387 C.3     1  UNL1        0.0739
      4 C         140.9454  141.8219  161.9875 C.3     1  UNL1        0.2039
      5 N         140.2504  142.4546  160.8184 N.pl3   1  UNL1       -0.1931
      6 C         138.7849  142.2205  160.6005 C.3     1  UNL1        0.2039
      7 C         138.0144  141.3537  161.5518 C.3     1  UNL1        0.0739
      8 H         137.2967  139.6177  163.7687 H       1  UNL1        0.1192
      9 H         137.0301  139.6555  162.1249 H       1  UNL1        0.1192
     10 C         141.0210  143.3214  159.8671 C.2     1  UNL1        0.3205
     11 N         140.5868  144.7360  159.6217 N.2     1  UNL1        0.0097
     12 C         141.3574  145.6028  158.6706 C.2     1  UNL1        0.4717
     13 N         142.5622  145.0549  157.9646 N.2     1  UNL1        0.0158
     14 C         142.9964  143.6403  158.2100 C.2     1  UNL1        0.3714
     15 N         144.1346  142.8306  157.6632 N.2     1  UNL1       -0.0339
     16 C         144.0673  141.4634  158.2765 C.2     1  UNL1        0.2323
     17 C         142.8877  141.4281  159.2023 C.2     1  UNL1        0.0486
     18 C         142.2258  142.7735  159.1612 C.3     1  UNL1        0.2428
     19 C         138.9208  139.9091  163.9643 C.2     1  UNL1        0.2353
     20 O         139.5791  138.5640  163.8789 O.2     1  UNL1       -0.2737
     21 N         138.4740  140.4424  165.2932 N.am    1  UNL1       -0.2990
     22 H         138.0419  141.3253  165.3493 H       1  UNL1        0.1498
     23 CA        138.6855  139.6306  166.5367 C.3     1  UNL1        0.1236
     24 C         139.8386  139.9375  167.4456 C.ar    1  UNL1       -0.0020
     25 C         141.2440  139.8577  166.9274 C.ar    1  UNL1       -0.0017
     26 C         142.3971  140.1646  167.8364 C.ar    1  UNL1        0.0111
     27 C         142.1448  140.5514  169.2635 C.ar    1  UNL1        0.0577
     28 CL        143.2978  140.8583  170.1725 Cl      1  UNL1       -0.0822
     29 C         140.7395  140.6312  169.7817 C.ar    1  UNL1        0.0111
     30 C         139.5863  140.3243  168.8728 C.ar    1  UNL1       -0.0017
     31 C         137.7439  138.5119  166.8712 C.3     1  UNL1        0.1611
     32 O         137.8953  137.1784  166.2011 O.3     1  UNL1       -0.3799
     33 H         137.7089  137.2697  165.2536 H       1  UNL1        0.2105
@<TRIPOS>BOND
     1     1     2    1
     2     2    19    1
     3    19    20    2
     4    19    21   am
     5    21    23    1
     6    23    31    1
     7    31    32    1
     8    23    24    1
     9    24    25   ar
    10    25    26   ar
    11    26    27   ar
    12    27    28    1
    13    27    29   ar
    14    29    30   ar
    15     2     3    1
    16     3     4    1
    17     4     5    1
    18     5    10    1
    19    10    11    2
    20    11    12    1
    21    12    13    2
    22    13    14    1
    23    14    15    2
    24    15    16    1
    25    16    17    2
    26    17    18    1
    27     5     6    1
    28     6     7    1
    29     7     2    1
    30    30    24   ar
    31    18    10    1
    32    18    14    1
    33     1     8    1
    34     1     9    1
    35    21    22    1
    36    32    33    1
@<TRIPOS>MOLECULE
*****
 33 36 0 0 0
SMALL
GASTEIGER

@<TRIPOS>ATOM
      1 N         143.4376  138.7734  164.2767 N.3     1  UNL1       -0.3162
      2 C         142.5745  138.6023  163.0620 C.3     1  UNL1        0.1166
      3 C         141.3491  138.4020  162.2203 C.3     1  UNL1        0.0739
      4 C         141.4666  138.3452  160.7261 C.3     1  UNL1        0.2039
      5 N         142.8095  138.4887  160.0733 N.pl3   1  UNL1       -0.1931
      6 C         144.0349  138.6889  160.9149 C.3     1  UNL1        0.2039
      7 C         143.9174  138.7457  162.4092 C.3     1  UNL1        0.0739
      8 H         142.8566  138.7381  165.1143 H       1  UNL1        0.1192
      9 H         143.9141  139.6741  164.2311 H       1  UNL1        0.1192
     10 C         142.9270  138.4318  158.5790 C.2     1  UNL1        0.3205
     11 N         142.9346  137.1062  157.8771 N.2     1  UNL1        0.0097
     12 C         143.0520  137.0494  156.3829 C.2     1  UNL1        0.4717
     13 N         143.1619  138.3182  155.5903 N.2     1  UNL1        0.0158
     14 C         143.1543  139.6438  156.2922 C.2     1  UNL1        0.3714
     15 N         143.2468  141.0509  155.7806 N.2     1  UNL1       -0.0339
     16 C         143.1865  141.9773  156.9588 C.2     1  UNL1        0.2323
     17 C         143.0567  141.1428  158.1985 C.2     1  UNL1        0.0486
     18 C         143.0369  139.7007  157.7865 C.3     1  UNL1        0.2428
     19 C         141.5313  138.5182  164.1365 C.2     1  UNL1        0.2353
     20 O         141.3434  137.2416  164.9012 O.2     1  UNL1       -0.2737
     21 N         140.6761  139.7110  164.4463 N.am    1  UNL1       -0.2990
     22 H         140.7995  140.5489  163.9444 H       1  UNL1        0.1498
     23 CA        139.6329  139.6270  165.5209 C.3     1  UNL1        0.1236
     24 C         139.7931  140.4182  166.7852 C.ar    1  UNL1       -0.0020
     25 C         140.4094  141.7850  166.7416 C.ar    1  UNL1       -0.0017
     26 C         140.5696  142.5761  168.0059 C.ar    1  UNL1        0.0111
     27 C         140.1135  142.0005  169.3138 C.ar    1  UNL1        0.0577
     28 CL        140.2737  142.7915  170.5780 Cl      1  UNL1       -0.0822
     29 C         139.4972  140.6337  169.3574 C.ar    1  UNL1        0.0111
     30 C         139.3370  139.8425  168.0931 C.ar    1  UNL1       -0.0017
     31 C         138.4295  138.7519  165.3312 C.3     1  UNL1        0.1611
     32 O         138.5425  137.2688  165.5257 O.3     1  UNL1       -0.3799
     33 H         139.1231  136.8966  164.8436 H       1  UNL1        0.2105
@<TRIPOS>BOND
     1     1     2    1
     2     2    19    1
     3    19    20    2
     4    19    21   am
     5    21    23    1
     6    23    31    1
     7    31    32    1
     8    23    24    1
     9    24    25   ar
    10    25    26   ar
    11    26    27   ar
    12    27    28    1
    13    27    29   ar
    14    29    30   ar
    15     2     3    1
    16     3     4    1
    17     4     5    1
    18     5    10    1
    19    10    11    2
    20    11    12    1
    21    12    13    2
    22    13    14    1
    23    14    15    2
    24    15    16    1
    25    16    17    2
    26    17    18    1
    27     5     6    1
    28     6     7    1
    29     7     2    1
    30    30    24   ar
    31    18    10    1
    32    18    14    1
    33     1     8    1
    34     1     9    1
    35    21    22    1
    36    32    33    1
