@<TRIPOS>MOLECULE
*****
 26 29 0 0 0
SMALL
GASTEIGER

@<TRIPOS>ATOM
      1 C         139.6925  139.6928  165.4732 C.ar    1  UNL1        0.0872
      2 C         139.5860  140.0943  166.9146 C.ar    1  UNL1        0.0508
      3 C         140.6765  140.9052  167.5497 C.ar    1  UNL1        0.1347
      4 N         141.8734  141.3147  166.7435 N.ar    1  UNL1       -0.2122
      5 C         141.9798  140.9131  165.3022 C.ar    1  UNL1        0.1600
      6 N         140.8893  140.1022  164.6670 N.ar    1  UNL1       -0.2293
      7 C         143.1766  141.3225  164.4959 C.2     1  UNL1        0.0230
      8 C         144.3190  140.3680  164.3117 C.2     1  UNL1       -0.0005
      9 C         145.5157  140.7774  163.5055 C.2     1  UNL1        0.0010
     10 C         145.5703  142.1413  162.8835 C.2     1  UNL1        0.0153
     11 C         144.4279  143.0958  163.0677 C.2     1  UNL1        0.0669
     12 N         144.2005  144.4953  162.5782 N.2     1  UNL1       -0.2478
     13 C         142.8631  144.9509  163.0819 C.2     1  UNL1        0.0946
     14 C         142.2639  143.8329  163.8828 C.2     1  UNL1        0.0046
     15 C         143.2311  142.6864  163.8740 C.3     1  UNL1        0.0888
     16 N         140.5701  141.3068  168.9910 N.pl3   1  UNL1       -0.2880
     17 C         140.0970  142.6835  169.3531 C.3     1  UNL1        0.1242
     18 C         139.9906  143.0850  170.7945 C.3     1  UNL1        0.1636
     19 O         140.3572  142.1099  171.8737 O.3     1  UNL1       -0.3501
     20 C         140.8302  140.7332  171.5116 C.3     1  UNL1        0.1636
     21 C         140.9366  140.3317  170.0703 C.3     1  UNL1        0.1242
     22 C         138.6021  138.8819  164.8381 C.3     1  UNL1        0.1963
     23 C         138.2527  138.9105  161.8586 C.3     1  UNL1        0.1765
     24 S         138.4274  138.8962  163.3484 S.O2    1  UNL1       -0.0025
     25 O         137.7781  140.2454  163.4374 O.2     1  UNL1       -0.1726
     26 O         139.0767  137.5469  163.2593 O.2     1  UNL1       -0.1726
@<TRIPOS>BOND
     1    23    24    1
     2    24    25    2
     3    24    26    2
     4    24    22    1
     5    22     1    1
     6     1     2   ar
     7     2     3   ar
     8     3    16    1
     9    16    17    1
    10    17    18    1
    11    18    19    1
    12    19    20    1
    13    20    21    1
    14     3     4   ar
    15     4     5   ar
    16     5     7    1
    17     7     8    2
    18     8     9    1
    19     9    10    2
    20    10    11    1
    21    11    12    2
    22    12    13    1
    23    13    14    2
    24    14    15    1
    25     5     6   ar
    26     6     1   ar
    27    21    16    1
    28    15     7    1
    29    15    11    1
@<TRIPOS>MOLECULE
*****
 26 29 0 0 0
SMALL
GASTEIGER

@<TRIPOS>ATOM
      1 C         143.2967  141.9463  165.3951 C.ar    1  UNL1        0.0872
      2 C         142.9695  142.1335  166.8470 C.ar    1  UNL1        0.0508
      3 C         141.6974  141.5702  167.4077 C.ar    1  UNL1        0.1347
      4 N         140.7525  140.8196  166.5167 N.ar    1  UNL1       -0.2122
      5 C         141.0798  140.6325  165.0648 C.ar    1  UNL1        0.1600
      6 N         142.3519  141.1958  164.5040 N.ar    1  UNL1       -0.2293
      7 C         140.1349  139.8820  164.1737 C.2     1  UNL1        0.0230
      8 C         140.1752  138.3831  164.1308 C.2     1  UNL1       -0.0005
      9 C         139.2305  137.6326  163.2398 C.2     1  UNL1        0.0010
     10 C         138.2453  138.3809  162.3915 C.2     1  UNL1        0.0153
     11 C         138.2050  139.8798  162.4343 C.2     1  UNL1        0.0669
     12 N         137.3500  140.8817  161.7167 N.2     1  UNL1       -0.2478
     13 C         137.7663  142.2515  162.1643 C.2     1  UNL1        0.0946
     14 C         138.8787  142.0961  163.1586 C.2     1  UNL1        0.0046
     15 C         139.1498  140.6303  163.3255 C.3     1  UNL1        0.0888
     16 N         141.3701  141.7574  168.8595 N.pl3   1  UNL1       -0.2880
     17 C         140.3231  142.7500  169.2705 C.3     1  UNL1        0.1242
     18 C         139.9959  142.9371  170.7224 C.3     1  UNL1        0.1636
     19 O         140.7155  142.1317  171.7632 O.3     1  UNL1       -0.3501
     20 C         141.7624  141.1392  171.3523 C.3     1  UNL1        0.1636
     21 C         142.0897  140.9520  169.9005 C.3     1  UNL1        0.1242
     22 C         144.5688  142.5096  164.8344 C.3     1  UNL1        0.1963
     23 C         145.2250  142.1325  161.9314 C.3     1  UNL1        0.1765
     24 S         144.8969  142.3210  163.3829 S.O2    1  UNL1       -0.0025
     25 O         144.1950  143.6061  163.0573 O.2     1  UNL1       -0.1726
     26 O         145.5988  141.0360  163.7085 O.2     1  UNL1       -0.1726
@<TRIPOS>BOND
     1    23    24    1
     2    24    25    2
     3    24    26    2
     4    24    22    1
     5    22     1    1
     6     1     2   ar
     7     2     3   ar
     8     3    16    1
     9    16    17    1
    10    17    18    1
    11    18    19    1
    12    19    20    1
    13    20    21    1
    14     3     4   ar
    15     4     5   ar
    16     5     7    1
    17     7     8    2
    18     8     9    1
    19     9    10    2
    20    10    11    1
    21    11    12    2
    22    12    13    1
    23    13    14    2
    24    14    15    1
    25     5     6   ar
    26     6     1   ar
    27    21    16    1
    28    15     7    1
    29    15    11    1
@<TRIPOS>MOLECULE
*****
 26 29 0 0 0
SMALL
GASTEIGER

@<TRIPOS>ATOM
      1 C         140.0340  143.3446  164.5919 C.ar    1  UNL1        0.0872
      2 C         140.2124  142.2001  163.6387 C.ar    1  UNL1        0.0508
      3 C         140.8919  140.9431  164.0949 C.ar    1  UNL1        0.1347
      4 N         141.3930  140.8305  165.5043 N.ar    1  UNL1       -0.2122
      5 C         141.2147  141.9749  166.4574 C.ar    1  UNL1        0.1600
      6 N         140.5351  143.2320  166.0011 N.ar    1  UNL1       -0.2293
      7 C         141.7158  141.8623  167.8667 C.2     1  UNL1        0.0230
      8 C         143.0826  142.3696  168.2195 C.2     1  UNL1       -0.0005
      9 C         143.5838  142.2571  169.6287 C.2     1  UNL1        0.0010
     10 C         142.7181  141.6372  170.6854 C.2     1  UNL1        0.0153
     11 C         141.3513  141.1299  170.3326 C.2     1  UNL1        0.0669
     12 N         140.2803  140.4762  171.1546 N.2     1  UNL1       -0.2478
     13 C         139.1173  140.1848  170.2533 C.2     1  UNL1        0.0946
     14 C         139.4694  140.6584  168.8743 C.2     1  UNL1        0.0046
     15 C         140.8501  141.2425  168.9233 C.3     1  UNL1        0.0888
     16 N         141.0702  139.7987  163.1418 N.pl3   1  UNL1       -0.2880
     17 C         139.8833  139.2302  162.4219 C.3     1  UNL1        0.1242
     18 C         140.0617  138.0857  161.4688 C.3     1  UNL1        0.1636
     19 O         141.4270  137.5098  161.2356 O.3     1  UNL1       -0.3501
     20 C         142.6138  138.0782  161.9555 C.3     1  UNL1        0.1636
     21 C         142.4355  139.2227  162.9086 C.3     1  UNL1        0.1242
     22 C         139.3545  144.6016  164.1357 C.3     1  UNL1        0.1963
     23 C         140.0270  145.7847  161.4621 C.3     1  UNL1        0.1765
     24 S         139.6908  145.1932  162.7989 S.O2    1  UNL1       -0.0025
     25 O         138.2953  144.9145  162.3246 O.2     1  UNL1       -0.1726
     26 O         141.0862  145.4718  163.2732 O.2     1  UNL1       -0.1726
@<TRIPOS>BOND
     1    23    24    1
     2    24    25    2
     3    24    26    2
     4    24    22    1
     5    22     1    1
     6     1     2   ar
     7     2     3   ar
     8     3    16    1
     9    16    17    1
    10    17    18    1
    11    18    19    1
    12    19    20    1
    13    20    21    1
    14     3     4   ar
    15     4     5   ar
    16     5     7    1
    17     7     8    2
    18     8     9    1
    19     9    10    2
    20    10    11    1
    21    11    12    2
    22    12    13    1
    23    13    14    2
    24    14    15    1
    25     5     6   ar
    26     6     1   ar
    27    21    16    1
    28    15     7    1
    29    15    11    1
@<TRIPOS>MOLECULE
*****
 26 29 0 0 0
SMALL
GASTEIGER

@<TRIPOS>ATOM
      1 C         142.8879  140.5137  165.5678 C.ar    1  UNL1        0.0872
      2 C         142.5498  140.6547  167.0224 C.ar    1  UNL1        0.0508
      3 C         141.5997  141.7252  167.4711 C.ar    1  UNL1        0.1347
      4 N         140.9877  142.6547  166.4653 N.ar    1  UNL1       -0.2122
      5 C         141.3259  142.5137  165.0108 C.ar    1  UNL1        0.1600
      6 N         142.2761  141.4432  164.5620 N.ar    1  UNL1       -0.2293
      7 C         140.7141  143.4432  164.0049 C.2     1  UNL1        0.0230
      8 C         141.2691  144.8252  163.8259 C.2     1  UNL1       -0.0005
      9 C         140.6573  145.7546  162.8201 C.2     1  UNL1        0.0010
     10 C         139.4903  145.3021  161.9933 C.2     1  UNL1        0.0153
     11 C         138.9353  143.9202  162.1723 C.2     1  UNL1        0.0669
     12 N         137.8007  143.2002  161.5059 N.2     1  UNL1       -0.2478
     13 C         137.7113  141.8257  162.0998 C.2     1  UNL1        0.0946
     14 C         138.7907  141.6962  163.1333 C.2     1  UNL1        0.0046
     15 C         139.5471  142.9907  163.1782 C.3     1  UNL1        0.0888
     16 N         141.2615  141.8662  168.9256 N.pl3   1  UNL1       -0.2880
     17 C         141.9603  141.0150  169.9441 C.3     1  UNL1        0.1242
     18 C         141.6220  141.1561  171.3987 C.3     1  UNL1        0.1636
     19 O         140.5851  142.1483  171.8347 O.3     1  UNL1       -0.3501
     20 C         139.8863  142.9994  170.8163 C.3     1  UNL1        0.1636
     21 C         140.2245  142.8584  169.3618 C.3     1  UNL1        0.1242
     22 C         143.8380  139.4432  165.1190 C.3     1  UNL1        0.1963
     23 C         143.9469  138.6499  162.2279 C.3     1  UNL1        0.1765
     24 S         143.8925  139.0466  163.6735 S.O2    1  UNL1       -0.0025
     25 O         145.0859  139.9334  163.4751 O.2     1  UNL1       -0.1726
     26 O         142.6991  138.1598  163.8718 O.2     1  UNL1       -0.1726
@<TRIPOS>BOND
     1    23    24    1
     2    24    25    2
     3    24    26    2
     4    24    22    1
     5    22     1    1
     6     1     2   ar
     7     2     3   ar
     8     3    16    1
     9    16    17    1
    10    17    18    1
    11    18    19    1
    12    19    20    1
    13    20    21    1
    14     3     4   ar
    15     4     5   ar
    16     5     7    1
    17     7     8    2
    18     8     9    1
    19     9    10    2
    20    10    11    1
    21    11    12    2
    22    12    13    1
    23    13    14    2
    24    14    15    1
    25     5     6   ar
    26     6     1   ar
    27    21    16    1
    28    15     7    1
    29    15    11    1
@<TRIPOS>MOLECULE
*****
 26 29 0 0 0
SMALL
GASTEIGER

@<TRIPOS>ATOM
      1 C         143.1512  140.7791  164.3101 C.ar    1  UNL1        0.0872
      2 C         142.2880  141.7236  163.5273 C.ar    1  UNL1        0.0508
      3 C         141.4053  142.7019  164.2440 C.ar    1  UNL1        0.1347
      4 N         141.3857  142.7358  165.7435 N.ar    1  UNL1       -0.2122
      5 C         142.2489  141.7912  166.5263 C.ar    1  UNL1        0.1600
      6 N         143.1317  140.8128  165.8095 N.ar    1  UNL1       -0.2293
      7 C         142.2294  141.8249  168.0258 C.2     1  UNL1        0.0230
      8 C         143.3758  142.4340  168.7773 C.2     1  UNL1       -0.0005
      9 C         143.3563  142.4677  170.2767 C.2     1  UNL1        0.0010
     10 C         142.1903  141.8924  171.0248 C.2     1  UNL1        0.0153
     11 C         141.0439  141.2834  170.2733 C.2     1  UNL1        0.0669
     12 N         139.7681  140.6436  170.7348 N.2     1  UNL1       -0.2478
     13 C         138.9992  140.2144  169.5206 C.2     1  UNL1        0.0946
     14 C         139.7997  140.5890  168.3086 C.2     1  UNL1        0.0046
     15 C         141.0634  141.2497  168.7738 C.3     1  UNL1        0.0888
     16 N         140.5421  143.6465  163.4612 N.pl3   1  UNL1       -0.2880
     17 C         139.0534  143.6286  163.6441 C.3     1  UNL1        0.1242
     18 C         138.1902  144.5733  162.8613 C.3     1  UNL1        0.1636
     19 O         138.8158  145.5356  161.8957 O.3     1  UNL1       -0.3501
     20 C         140.3045  145.5535  161.7128 C.3     1  UNL1        0.1636
     21 C         141.1676  144.6089  162.4956 C.3     1  UNL1        0.1242
     22 C         144.0339  139.8008  163.5934 C.3     1  UNL1        0.1963
     23 C         142.8779  137.9953  161.4948 C.3     1  UNL1        0.1765
     24 S         143.4559  138.8980  162.5441 S.O2    1  UNL1       -0.0025
     25 O         142.6414  138.2004  163.5929 O.2     1  UNL1       -0.1726
     26 O         144.2704  139.5956  161.4953 O.2     1  UNL1       -0.1726
@<TRIPOS>BOND
     1    23    24    1
     2    24    25    2
     3    24    26    2
     4    24    22    1
     5    22     1    1
     6     1     2   ar
     7     2     3   ar
     8     3    16    1
     9    16    17    1
    10    17    18    1
    11    18    19    1
    12    19    20    1
    13    20    21    1
    14     3     4   ar
    15     4     5   ar
    16     5     7    1
    17     7     8    2
    18     8     9    1
    19     9    10    2
    20    10    11    1
    21    11    12    2
    22    12    13    1
    23    13    14    2
    24    14    15    1
    25     5     6   ar
    26     6     1   ar
    27    21    16    1
    28    15     7    1
    29    15    11    1
@<TRIPOS>MOLECULE
*****
 26 29 0 0 0
SMALL
GASTEIGER

@<TRIPOS>ATOM
      1 C         142.9251  142.1799  164.2750 C.ar    1  UNL1        0.0872
      2 C         141.8447  141.5711  163.4311 C.ar    1  UNL1        0.0508
      3 C         140.8007  140.6992  164.0635 C.ar    1  UNL1        0.1347
      4 N         140.8370  140.4362  165.5399 N.ar    1  UNL1       -0.2122
      5 C         141.9174  141.0450  166.3837 C.ar    1  UNL1        0.1600
      6 N         142.9615  141.9169  165.7512 N.ar    1  UNL1       -0.2293
      7 C         141.9538  140.7820  167.8601 C.2     1  UNL1        0.0230
      8 C         142.5623  139.5139  168.3812 C.2     1  UNL1       -0.0005
      9 C         142.5987  139.2509  169.8574 C.2     1  UNL1        0.0010
     10 C         142.0267  140.2560  170.8127 C.2     1  UNL1        0.0153
     11 C         141.4182  141.5242  170.2916 C.2     1  UNL1        0.0669
     12 N         140.7813  142.6911  170.9862 N.2     1  UNL1       -0.2478
     13 C         140.3512  143.6754  169.9392 C.2     1  UNL1        0.0946
     14 C         140.7224  143.1167  168.5975 C.2     1  UNL1        0.0046
     15 C         141.3818  141.7872  168.8153 C.3     1  UNL1        0.0888
     16 N         139.7203  140.0904  163.2197 N.pl3   1  UNL1       -0.2880
     17 C         138.8943  140.9588  162.3175 C.3     1  UNL1        0.1242
     18 C         137.8139  140.3499  161.4736 C.3     1  UNL1        0.1636
     19 O         137.5596  138.8728  161.5320 O.3     1  UNL1       -0.3501
     20 C         138.3855  138.0045  162.4341 C.3     1  UNL1        0.1636
     21 C         139.4659  138.6133  163.2780 C.3     1  UNL1        0.1242
     22 C         143.9691  143.0517  163.6425 C.3     1  UNL1        0.1963
     23 C         144.8517  142.5302  160.8231 C.3     1  UNL1        0.1765
     24 S         144.4104  142.7910  162.2328 S.O2    1  UNL1       -0.0025
     25 O         143.6607  144.0062  161.7734 O.2     1  UNL1       -0.1726
     26 O         145.1601  141.5757  162.6923 O.2     1  UNL1       -0.1726
@<TRIPOS>BOND
     1    23    24    1
     2    24    25    2
     3    24    26    2
     4    24    22    1
     5    22     1    1
     6     1     2   ar
     7     2     3   ar
     8     3    16    1
     9    16    17    1
    10    17    18    1
    11    18    19    1
    12    19    20    1
    13    20    21    1
    14     3     4   ar
    15     4     5   ar
    16     5     7    1
    17     7     8    2
    18     8     9    1
    19     9    10    2
    20    10    11    1
    21    11    12    2
    22    12    13    1
    23    13    14    2
    24    14    15    1
    25     5     6   ar
    26     6     1   ar
    27    21    16    1
    28    15     7    1
    29    15    11    1
@<TRIPOS>MOLECULE
*****
 26 29 0 0 0
SMALL
GASTEIGER

@<TRIPOS>ATOM
      1 C         139.3532  140.1506  165.1202 C.ar    1  UNL1        0.0872
      2 C         139.3587  140.2371  166.6178 C.ar    1  UNL1        0.0508
      3 C         140.3261  141.1488  167.3127 C.ar    1  UNL1        0.1347
      4 N         141.2879  141.9741  166.5102 N.ar    1  UNL1       -0.2122
      5 C         141.2823  141.8876  165.0127 C.ar    1  UNL1        0.1600
      6 N         140.3149  140.9758  164.3177 N.ar    1  UNL1       -0.2293
      7 C         142.2440  142.7128  164.2102 C.2     1  UNL1        0.0230
      8 C         142.1570  144.2099  164.2434 C.2     1  UNL1       -0.0005
      9 C         143.1186  145.0350  163.4410 C.2     1  UNL1        0.0010
     10 C         144.1675  144.3632  162.6051 C.2     1  UNL1        0.0153
     11 C         144.2546  142.8661  162.5718 C.2     1  UNL1        0.0669
     12 N         145.1755  141.9302  161.8466 N.2     1  UNL1       -0.2478
     13 C         144.7829  140.5265  162.2009 C.2     1  UNL1        0.0946
     14 C         143.6193  140.5949  163.1451 C.2     1  UNL1        0.0046
     15 C         143.2928  142.0409  163.3744 C.3     1  UNL1        0.0888
     16 N         140.3317  141.2353  168.8102 N.pl3   1  UNL1       -0.2880
     17 C         140.3612  139.9819  169.6338 C.3     1  UNL1        0.1242
     18 C         140.3669  140.0684  171.1313 C.3     1  UNL1        0.1636
     19 O         140.3429  141.4083  171.8052 O.3     1  UNL1       -0.3501
     20 C         140.3134  142.6617  170.9816 C.3     1  UNL1        0.1636
     21 C         140.3078  142.5751  169.4841 C.3     1  UNL1        0.1242
     22 C         138.3858  139.2389  164.4253 C.3     1  UNL1        0.1963
     23 C         139.0873  138.0605  161.7570 C.3     1  UNL1        0.1765
     24 S         138.7365  138.6497  163.0912 S.O2    1  UNL1       -0.0025
     25 O         137.7932  139.6045  162.4215 O.2     1  UNL1       -0.1726
     26 O         139.6799  137.6949  163.7608 O.2     1  UNL1       -0.1726
@<TRIPOS>BOND
     1    23    24    1
     2    24    25    2
     3    24    26    2
     4    24    22    1
     5    22     1    1
     6     1     2   ar
     7     2     3   ar
     8     3    16    1
     9    16    17    1
    10    17    18    1
    11    18    19    1
    12    19    20    1
    13    20    21    1
    14     3     4   ar
    15     4     5   ar
    16     5     7    1
    17     7     8    2
    18     8     9    1
    19     9    10    2
    20    10    11    1
    21    11    12    2
    22    12    13    1
    23    13    14    2
    24    14    15    1
    25     5     6   ar
    26     6     1   ar
    27    21    16    1
    28    15     7    1
    29    15    11    1
@<TRIPOS>MOLECULE
*****
 26 29 0 0 0
SMALL
GASTEIGER

@<TRIPOS>ATOM
      1 C         139.3025  139.6896  165.0911 C.ar    1  UNL1        0.0872
      2 C         139.4751  139.7798  166.5785 C.ar    1  UNL1        0.0508
      3 C         139.9329  141.0641  167.2038 C.ar    1  UNL1        0.1347
      4 N         140.2182  142.2582  166.3418 N.ar    1  UNL1       -0.2122
      5 C         140.0456  142.1679  164.8545 C.ar    1  UNL1        0.1600
      6 N         139.5878  140.8835  164.2292 N.ar    1  UNL1       -0.2293
      7 C         140.3309  143.3619  163.9925 C.2     1  UNL1        0.0230
      8 C         139.2036  144.2283  163.5145 C.2     1  UNL1       -0.0005
      9 C         139.4888  145.4222  162.6525 C.2     1  UNL1        0.0010
     10 C         140.9014  145.7499  162.2686 C.2     1  UNL1        0.0153
     11 C         142.0287  144.8835  162.7466 C.2     1  UNL1        0.0669
     12 N         143.5114  144.9566  162.5319 N.2     1  UNL1       -0.2478
     13 C         144.1425  143.8078  163.2612 C.2     1  UNL1        0.0946
     14 C         143.0499  143.0247  163.9267 C.2     1  UNL1        0.0046
     15 C         141.7434  143.6895  163.6086 C.3     1  UNL1        0.0888
     16 N         140.1055  141.1544  168.6911 N.pl3   1  UNL1       -0.2880
     17 C         140.1022  139.9066  169.5236 C.3     1  UNL1        0.1242
     18 C         140.2748  139.9969  171.0110 C.3     1  UNL1        0.1636
     19 O         140.4506  141.3349  171.6656 O.3     1  UNL1       -0.3501
     20 C         140.4539  142.5827  170.8331 C.3     1  UNL1        0.1636
     21 C         140.2814  142.4924  169.3458 C.3     1  UNL1        0.1242
     22 C         138.8447  138.4053  164.4658 C.3     1  UNL1        0.1963
     23 C         139.4261  137.8537  161.5748 C.3     1  UNL1        0.1765
     24 S         139.1354  138.1295  163.0203 S.O2    1  UNL1       -0.0025
     25 O         140.4175  137.4538  163.4071 O.2     1  UNL1       -0.1726
     26 O         137.8533  138.8052  162.6335 O.2     1  UNL1       -0.1726
@<TRIPOS>BOND
     1    23    24    1
     2    24    25    2
     3    24    26    2
     4    24    22    1
     5    22     1    1
     6     1     2   ar
     7     2     3   ar
     8     3    16    1
     9    16    17    1
    10    17    18    1
    11    18    19    1
    12    19    20    1
    13    20    21    1
    14     3     4   ar
    15     4     5   ar
    16     5     7    1
    17     7     8    2
    18     8     9    1
    19     9    10    2
    20    10    11    1
    21    11    12    2
    22    12    13    1
    23    13    14    2
    24    14    15    1
    25     5     6   ar
    26     6     1   ar
    27    21    16    1
    28    15     7    1
    29    15    11    1
@<TRIPOS>MOLECULE
*****
 26 29 0 0 0
SMALL
GASTEIGER

@<TRIPOS>ATOM
      1 C         141.7203  139.3522  164.0505 C.ar    1  UNL1        0.0872
      2 C         141.3088  140.4969  163.1727 C.ar    1  UNL1        0.0508
      3 C         140.6653  141.7104  163.7752 C.ar    1  UNL1        0.1347
      4 N         140.4332  141.7795  165.2556 N.ar    1  UNL1       -0.2122
      5 C         140.8446  140.6348  166.1334 C.ar    1  UNL1        0.1600
      6 N         141.4882  139.4211  165.5308 N.ar    1  UNL1       -0.2293
      7 C         140.6126  140.7037  167.6137 C.2     1  UNL1        0.0230
      8 C         139.3560  140.1348  168.2032 C.2     1  UNL1       -0.0005
      9 C         139.1239  140.2038  169.6834 C.2     1  UNL1        0.0010
     10 C         140.1484  140.8416  170.5744 C.2     1  UNL1        0.0153
     11 C         141.4049  141.4105  169.9849 C.2     1  UNL1        0.0669
     12 N         142.5856  142.0944  170.6079 N.2     1  UNL1       -0.2478
     13 C         143.5475  142.4482  169.5126 C.2     1  UNL1        0.0946
     14 C         142.9612  141.9829  168.2127 C.2     1  UNL1        0.0046
     15 C         141.6370  141.3416  168.5046 C.3     1  UNL1        0.0888
     16 N         140.2539  142.8551  162.8975 N.pl3   1  UNL1       -0.2880
     17 C         139.6349  144.0799  163.5031 C.3     1  UNL1        0.1242
     18 C         139.2235  145.2246  162.6253 C.3     1  UNL1        0.1636
     19 O         139.4310  145.1444  161.1419 O.3     1  UNL1       -0.3501
     20 C         140.0500  143.9196  160.5363 C.3     1  UNL1        0.1636
     21 C         140.4614  142.7750  161.4141 C.3     1  UNL1        0.1242
     22 C         142.3638  138.1386  163.4480 C.3     1  UNL1        0.1963
     23 C         144.0025  138.3947  160.9482 C.3     1  UNL1        0.1765
     24 S         143.1831  138.2667  162.1981 S.O2    1  UNL1       -0.0025
     25 O         144.3032  138.8683  162.9940 O.2     1  UNL1       -0.1726
     26 O         142.0631  137.6650  161.4022 O.2     1  UNL1       -0.1726
@<TRIPOS>BOND
     1    23    24    1
     2    24    25    2
     3    24    26    2
     4    24    22    1
     5    22     1    1
     6     1     2   ar
     7     2     3   ar
     8     3    16    1
     9    16    17    1
    10    17    18    1
    11    18    19    1
    12    19    20    1
    13    20    21    1
    14     3     4   ar
    15     4     5   ar
    16     5     7    1
    17     7     8    2
    18     8     9    1
    19     9    10    2
    20    10    11    1
    21    11    12    2
    22    12    13    1
    23    13    14    2
    24    14    15    1
    25     5     6   ar
    26     6     1   ar
    27    21    16    1
    28    15     7    1
    29    15    11    1
