@<TRIPOS>MOLECULE
*****
 19 20 0 0 0
SMALL
GASTEIGER

@<TRIPOS>ATOM
      1 C         140.3722  140.5003  166.2059 C.3     1  UNL1        0.1598
      2 C         140.2134  141.1644  167.5415 C.ar    1  UNL1        0.0087
      3 C         140.6449  142.5889  167.7269 C.ar    1  UNL1       -0.0016
      4 C         140.4860  143.2530  169.0624 C.ar    1  UNL1       -0.0002
      5 C         139.8956  142.4925  170.2127 C.ar    1  UNL1       -0.0000
      6 C         139.4640  141.0679  170.0273 C.ar    1  UNL1       -0.0002
      7 C         139.6229  140.4039  168.6918 C.ar    1  UNL1       -0.0016
      8 C         141.7337  140.0869  165.7311 C.ar    1  UNL1        0.0087
      9 C         142.3759  140.8026  164.5799 C.ar    1  UNL1       -0.0016
     10 C         143.7374  140.3892  164.1051 C.ar    1  UNL1       -0.0002
     11 C         144.4567  139.2600  164.7815 C.ar    1  UNL1       -0.0000
     12 C         143.8145  138.5442  165.9327 C.ar    1  UNL1       -0.0002
     13 C         142.4530  138.9576  166.4075 C.ar    1  UNL1       -0.0016
     14 O         139.1696  140.2496  165.3452 O.3     1  UNL1       -0.3459
     15 C         138.3811  138.9841  165.5085 C.3     1  UNL1        0.1602
     16 C         138.9165  137.6917  164.9672 C.3     1  UNL1        0.1047
     17 C         140.9615  137.2667  163.4220 C.3     1  UNL1        0.0897
     18 N         139.5206  137.6462  163.5949 N.3     1  UNL1       -0.2682
     19 C         138.6838  137.9801  162.3957 C.3     1  UNL1        0.0897
@<TRIPOS>BOND
     1    17    18    1
     2    18    19    1
     3    18    16    1
     4    16    15    1
     5    15    14    1
     6    14     1    1
     7     1     2    1
     8     2     3   ar
     9     3     4   ar
    10     4     5   ar
    11     5     6   ar
    12     6     7   ar
    13     1     8    1
    14     8     9   ar
    15     9    10   ar
    16    10    11   ar
    17    11    12   ar
    18    12    13   ar
    19     7     2   ar
    20    13     8   ar
@<TRIPOS>MOLECULE
*****
 19 20 0 0 0
SMALL
GASTEIGER

@<TRIPOS>ATOM
      1 C         140.3483  140.4892  166.2477 C.3     1  UNL1        0.1598
      2 C         141.7084  140.0836  165.7622 C.ar    1  UNL1        0.0087
      3 C         142.3383  140.8043  164.6073 C.ar    1  UNL1       -0.0016
      4 C         143.6984  140.3987  164.1219 C.ar    1  UNL1       -0.0002
      5 C         144.4286  139.2724  164.7914 C.ar    1  UNL1       -0.0000
      6 C         143.7987  138.5517  165.9463 C.ar    1  UNL1       -0.0002
      7 C         142.4386  138.9573  166.4317 C.ar    1  UNL1       -0.0016
      8 C         140.1973  141.1620  167.5798 C.ar    1  UNL1        0.0087
      9 C         139.6218  140.4064  168.7407 C.ar    1  UNL1       -0.0016
     10 C         139.4708  141.0792  170.0729 C.ar    1  UNL1       -0.0002
     11 C         139.8951  142.5077  170.2440 C.ar    1  UNL1       -0.0000
     12 C         140.4706  143.2634  169.0830 C.ar    1  UNL1       -0.0002
     13 C         140.6216  142.5906  167.7509 C.ar    1  UNL1       -0.0016
     14 O         139.1393  140.2220  165.4010 O.3     1  UNL1       -0.3459
     15 C         138.3744  138.9426  165.5682 C.3     1  UNL1        0.1602
     16 C         138.9279  137.6608  165.0199 C.3     1  UNL1        0.1047
     17 C         138.6134  137.9331  162.4553 C.3     1  UNL1        0.0897
     18 N         139.4918  137.6210  163.6304 N.3     1  UNL1       -0.2682
     19 C         140.9341  137.2691  163.4162 C.3     1  UNL1        0.0897
@<TRIPOS>BOND
     1    17    18    1
     2    18    19    1
     3    18    16    1
     4    16    15    1
     5    15    14    1
     6    14     1    1
     7     1     2    1
     8     2     3   ar
     9     3     4   ar
    10     4     5   ar
    11     5     6   ar
    12     6     7   ar
    13     1     8    1
    14     8     9   ar
    15     9    10   ar
    16    10    11   ar
    17    11    12   ar
    18    12    13   ar
    19     7     2   ar
    20    13     8   ar
@<TRIPOS>MOLECULE
*****
 19 20 0 0 0
SMALL
GASTEIGER

@<TRIPOS>ATOM
      1 C         141.2511  141.9451  166.0438 C.3     1  UNL1        0.1598
      2 C         141.6017  142.3076  167.4565 C.ar    1  UNL1        0.0087
      3 C         142.9816  142.0385  167.9794 C.ar    1  UNL1       -0.0016
      4 C         143.3321  142.4011  169.3921 C.ar    1  UNL1       -0.0002
      5 C         142.3028  143.0327  170.2818 C.ar    1  UNL1       -0.0000
      6 C         140.9230  143.3018  169.7589 C.ar    1  UNL1       -0.0002
      7 C         140.5724  142.9392  168.3462 C.ar    1  UNL1       -0.0016
      8 C         140.1210  142.6446  165.3484 C.ar    1  UNL1        0.0087
      9 C         140.2814  144.0673  164.9011 C.ar    1  UNL1       -0.0016
     10 C         139.1512  144.7668  164.2057 C.ar    1  UNL1       -0.0002
     11 C         137.8608  144.0436  163.9576 C.ar    1  UNL1       -0.0000
     12 C         137.7004  142.6208  164.4049 C.ar    1  UNL1       -0.0002
     13 C         138.8305  141.9214  165.1003 C.ar    1  UNL1       -0.0016
     14 O         142.0306  140.8831  165.3265 O.3     1  UNL1       -0.3459
     15 C         142.2824  141.0039  163.8528 C.3     1  UNL1        0.1602
     16 C         143.1610  142.1013  163.3295 C.3     1  UNL1        0.1047
     17 C         144.4312  143.6147  165.0167 C.3     1  UNL1        0.0897
     18 N         144.4227  142.4628  164.0560 N.3     1  UNL1       -0.2682
     19 C         145.6757  141.6723  163.8217 C.3     1  UNL1        0.0897
@<TRIPOS>BOND
     1    17    18    1
     2    18    19    1
     3    18    16    1
     4    16    15    1
     5    15    14    1
     6    14     1    1
     7     1     2    1
     8     2     3   ar
     9     3     4   ar
    10     4     5   ar
    11     5     6   ar
    12     6     7   ar
    13     1     8    1
    14     8     9   ar
    15     9    10   ar
    16    10    11   ar
    17    11    12   ar
    18    12    13   ar
    19     7     2   ar
    20    13     8   ar
@<TRIPOS>MOLECULE
*****
 19 20 0 0 0
SMALL
GASTEIGER

@<TRIPOS>ATOM
      1 C         141.8432  141.5009  166.1122 C.3     1  UNL1        0.1598
      2 C         143.1349  141.4577  165.3508 C.ar    1  UNL1        0.0087
      3 C         143.7317  140.1380  164.9606 C.ar    1  UNL1       -0.0016
      4 C         145.0234  140.0949  164.1993 C.ar    1  UNL1       -0.0002
      5 C         145.7183  141.3713  163.8282 C.ar    1  UNL1       -0.0000
      6 C         145.1215  142.6910  164.2184 C.ar    1  UNL1       -0.0002
      7 C         143.8298  142.7342  164.9797 C.ar    1  UNL1       -0.0016
      8 C         141.8000  142.1107  167.4819 C.ar    1  UNL1        0.0087
      9 C         140.5551  142.7994  167.9573 C.ar    1  UNL1       -0.0016
     10 C         140.5119  143.4093  169.3271 C.ar    1  UNL1       -0.0002
     11 C         141.7135  143.3305  170.2214 C.ar    1  UNL1       -0.0000
     12 C         142.9584  142.6418  169.7460 C.ar    1  UNL1       -0.0002
     13 C         143.0016  142.0319  168.3763 C.ar    1  UNL1       -0.0016
     14 O         140.5947  140.9342  165.5037 O.3     1  UNL1       -0.3459
     15 C         139.8859  141.6814  164.4132 C.3     1  UNL1        0.1602
     16 C         138.5523  142.3134  164.6814 C.3     1  UNL1        0.1047
     17 C         137.7245  144.1665  163.0593 C.3     1  UNL1        0.0897
     18 N         138.3337  143.7644  164.3698 N.3     1  UNL1       -0.2682
     19 C         138.7242  144.8131  165.3685 C.3     1  UNL1        0.0897
@<TRIPOS>BOND
     1    17    18    1
     2    18    19    1
     3    18    16    1
     4    16    15    1
     5    15    14    1
     6    14     1    1
     7     1     2    1
     8     2     3   ar
     9     3     4   ar
    10     4     5   ar
    11     5     6   ar
    12     6     7   ar
    13     1     8    1
    14     8     9   ar
    15     9    10   ar
    16    10    11   ar
    17    11    12   ar
    18    12    13   ar
    19     7     2   ar
    20    13     8   ar
@<TRIPOS>MOLECULE
*****
 19 20 0 0 0
SMALL
GASTEIGER

@<TRIPOS>ATOM
      1 C         140.8281  142.2509  165.9054 C.3     1  UNL1        0.1598
      2 C         139.8649  142.9332  164.9797 C.ar    1  UNL1        0.0087
      3 C         140.1859  144.2922  164.4321 C.ar    1  UNL1       -0.0016
      4 C         139.2227  144.9744  163.5064 C.ar    1  UNL1       -0.0002
      5 C         137.9387  144.2975  163.1283 C.ar    1  UNL1       -0.0000
      6 C         137.6177  142.9384  163.6759 C.ar    1  UNL1       -0.0002
      7 C         138.5809  142.2562  164.6015 C.ar    1  UNL1       -0.0016
      8 C         140.4233  141.9460  167.3172 C.ar    1  UNL1        0.0087
      9 C         140.5563  142.9968  168.3792 C.ar    1  UNL1       -0.0016
     10 C         140.1515  142.6918  169.7910 C.ar    1  UNL1       -0.0002
     11 C         139.6136  141.3360  170.1407 C.ar    1  UNL1       -0.0000
     12 C         139.4805  140.2851  169.0787 C.ar    1  UNL1       -0.0002
     13 C         139.8854  140.5901  167.6669 C.ar    1  UNL1       -0.0016
     14 O         142.1961  141.8736  165.4193 O.3     1  UNL1       -0.3459
     15 C         143.4124  142.4595  166.0731 C.3     1  UNL1        0.1602
     16 C         144.3688  143.2903  165.2699 C.3     1  UNL1        0.1047
     17 C         144.3450  143.5574  162.6857 C.3     1  UNL1        0.0897
     18 N         144.8068  142.8274  163.9120 N.3     1  UNL1       -0.2682
     19 C         145.7066  141.6344  163.7803 C.3     1  UNL1        0.0897
@<TRIPOS>BOND
     1    17    18    1
     2    18    19    1
     3    18    16    1
     4    16    15    1
     5    15    14    1
     6    14     1    1
     7     1     2    1
     8     2     3   ar
     9     3     4   ar
    10     4     5   ar
    11     5     6   ar
    12     6     7   ar
    13     1     8    1
    14     8     9   ar
    15     9    10   ar
    16    10    11   ar
    17    11    12   ar
    18    12    13   ar
    19     7     2   ar
    20    13     8   ar
@<TRIPOS>MOLECULE
*****
 19 20 0 0 0
SMALL
GASTEIGER

@<TRIPOS>ATOM
      1 C         139.1542  140.2274  165.9547 C.3     1  UNL1        0.1598
      2 C         138.9648  141.5935  165.3646 C.ar    1  UNL1        0.0087
      3 C         137.9203  141.8173  164.3116 C.ar    1  UNL1       -0.0016
      4 C         137.7310  143.1833  163.7215 C.ar    1  UNL1       -0.0002
      5 C         138.5861  144.3254  164.1845 C.ar    1  UNL1       -0.0000
      6 C         139.6306  144.1015  165.2375 C.ar    1  UNL1       -0.0002
      7 C         139.8199  142.7356  165.8276 C.ar    1  UNL1       -0.0016
      8 C         140.2433  139.9882  166.9580 C.ar    1  UNL1        0.0087
      9 C         139.9543  140.1188  168.4241 C.ar    1  UNL1       -0.0016
     10 C         141.0434  139.8796  169.4274 C.ar    1  UNL1       -0.0002
     11 C         142.4215  139.5099  168.9646 C.ar    1  UNL1       -0.0000
     12 C         142.7105  139.3794  167.4985 C.ar    1  UNL1       -0.0002
     13 C         141.6214  139.6185  166.4952 C.ar    1  UNL1       -0.0016
     14 O         138.2545  139.1006  165.5414 O.3     1  UNL1       -0.3459
     15 C         138.8305  137.8870  164.8742 C.3     1  UNL1        0.1602
     16 C         138.7904  137.7625  163.3799 C.3     1  UNL1        0.1047
     17 C         141.3533  137.3640  163.2279 C.3     1  UNL1        0.0897
     18 N         140.0654  137.7939  162.5903 N.3     1  UNL1       -0.2682
     19 C         140.0525  138.2553  161.1631 C.3     1  UNL1        0.0897
@<TRIPOS>BOND
     1    17    18    1
     2    18    19    1
     3    18    16    1
     4    16    15    1
     5    15    14    1
     6    14     1    1
     7     1     2    1
     8     2     3   ar
     9     3     4   ar
    10     4     5   ar
    11     5     6   ar
    12     6     7   ar
    13     1     8    1
    14     8     9   ar
    15     9    10   ar
    16    10    11   ar
    17    11    12   ar
    18    12    13   ar
    19     7     2   ar
    20    13     8   ar
@<TRIPOS>MOLECULE
*****
 19 20 0 0 0
SMALL
GASTEIGER

@<TRIPOS>ATOM
      1 C         140.7171  141.9174  166.3154 C.3     1  UNL1        0.1598
      2 C         140.3064  142.9818  165.3415 C.ar    1  UNL1        0.0087
      3 C         141.3503  143.7699  164.6073 C.ar    1  UNL1       -0.0016
      4 C         140.9396  144.8342  163.6334 C.ar    1  UNL1       -0.0002
      5 C         139.4849  145.1104  163.3937 C.ar    1  UNL1       -0.0000
      6 C         138.4409  144.3223  164.1278 C.ar    1  UNL1       -0.0002
      7 C         138.8516  143.2580  165.1017 C.ar    1  UNL1       -0.0016
      8 C         141.3328  142.2998  167.6287 C.ar    1  UNL1        0.0087
      9 C         140.5189  143.0327  168.6535 C.ar    1  UNL1       -0.0016
     10 C         141.1346  143.4151  169.9669 C.ar    1  UNL1       -0.0002
     11 C         142.5642  143.0644  170.2553 C.ar    1  UNL1       -0.0000
     12 C         143.3781  142.3314  169.2305 C.ar    1  UNL1       -0.0002
     13 C         142.7624  141.9491  167.9172 C.ar    1  UNL1       -0.0016
     14 O         140.5121  140.4708  165.9760 O.3     1  UNL1       -0.3459
     15 C         139.3581  139.7177  166.5685 C.3     1  UNL1        0.1602
     16 C         138.2476  139.2308  165.6855 C.3     1  UNL1        0.1047
     17 C         139.0820  137.8000  163.6838 C.3     1  UNL1        0.0897
     18 N         138.4778  139.0671  164.2122 N.3     1  UNL1       -0.2682
     19 C         138.1037  140.1705  163.2675 C.3     1  UNL1        0.0897
@<TRIPOS>BOND
     1    17    18    1
     2    18    19    1
     3    18    16    1
     4    16    15    1
     5    15    14    1
     6    14     1    1
     7     1     2    1
     8     2     3   ar
     9     3     4   ar
    10     4     5   ar
    11     5     6   ar
    12     6     7   ar
    13     1     8    1
    14     8     9   ar
    15     9    10   ar
    16    10    11   ar
    17    11    12   ar
    18    12    13   ar
    19     7     2   ar
    20    13     8   ar
@<TRIPOS>MOLECULE
*****
 19 20 0 0 0
SMALL
GASTEIGER

@<TRIPOS>ATOM
      1 C         139.1022  140.2718  165.9078 C.3     1  UNL1        0.1598
      2 C         140.1697  140.0426  166.9364 C.ar    1  UNL1        0.0087
      3 C         139.8437  140.1640  168.3955 C.ar    1  UNL1       -0.0016
      4 C         140.9111  139.9349  169.4241 C.ar    1  UNL1       -0.0002
      5 C         142.3046  139.5844  168.9936 C.ar    1  UNL1       -0.0000
      6 C         142.6307  139.4630  167.5345 C.ar    1  UNL1       -0.0002
      7 C         141.5632  139.6922  166.5059 C.ar    1  UNL1       -0.0016
      8 C         138.9373  141.6273  165.2872 C.ar    1  UNL1        0.0087
      9 C         139.7951  142.7703  165.7430 C.ar    1  UNL1       -0.0016
     10 C         139.6301  144.1259  165.1224 C.ar    1  UNL1       -0.0002
     11 C         138.6073  144.3386  164.0461 C.ar    1  UNL1       -0.0000
     12 C         137.7495  143.1956  163.5902 C.ar    1  UNL1       -0.0002
     13 C         137.9144  141.8400  164.2108 C.ar    1  UNL1       -0.0016
     14 O         138.1998  139.1452  165.4997 O.3     1  UNL1       -0.3459
     15 C         138.7861  137.8529  165.0139 C.3     1  UNL1        0.1602
     16 C         139.6215  137.8295  163.7683 C.3     1  UNL1        0.1047
     17 C         140.1824  139.7556  162.1174 C.3     1  UNL1        0.0897
     18 N         139.2450  138.6871  162.5966 N.3     1  UNL1       -0.2682
     19 C         137.9313  138.4762  161.9042 C.3     1  UNL1        0.0897
@<TRIPOS>BOND
     1    17    18    1
     2    18    19    1
     3    18    16    1
     4    16    15    1
     5    15    14    1
     6    14     1    1
     7     1     2    1
     8     2     3   ar
     9     3     4   ar
    10     4     5   ar
    11     5     6   ar
    12     6     7   ar
    13     1     8    1
    14     8     9   ar
    15     9    10   ar
    16    10    11   ar
    17    11    12   ar
    18    12    13   ar
    19     7     2   ar
    20    13     8   ar
@<TRIPOS>MOLECULE
*****
 19 20 0 0 0
SMALL
GASTEIGER

@<TRIPOS>ATOM
      1 C         139.0922  140.3256  165.8112 C.3     1  UNL1        0.1598
      2 C         138.9035  141.7024  165.2463 C.ar    1  UNL1        0.0087
      3 C         139.7463  142.8391  165.7438 C.ar    1  UNL1       -0.0016
      4 C         139.5576  144.2158  165.1789 C.ar    1  UNL1       -0.0002
      5 C         138.5262  144.4557  164.1165 C.ar    1  UNL1       -0.0000
      6 C         137.6835  143.3189  163.6190 C.ar    1  UNL1       -0.0002
      7 C         137.8721  141.9423  164.1839 C.ar    1  UNL1       -0.0016
      8 C         140.1418  140.0802  166.8543 C.ar    1  UNL1        0.0087
      9 C         141.5479  139.7589  166.4423 C.ar    1  UNL1       -0.0016
     10 C         142.5975  139.5135  167.4854 C.ar    1  UNL1       -0.0002
     11 C         142.2411  139.5895  168.9404 C.ar    1  UNL1       -0.0000
     12 C         140.8350  139.9108  169.3524 C.ar    1  UNL1       -0.0002
     13 C         139.7854  140.1562  168.3094 C.ar    1  UNL1       -0.0016
     14 O         138.2311  139.1943  165.3330 O.3     1  UNL1       -0.3459
     15 C         138.8587  137.8938  164.9271 C.3     1  UNL1        0.1602
     16 C         139.3309  137.6967  163.5171 C.3     1  UNL1        0.1047
     17 C         137.7874  138.8666  161.7853 C.3     1  UNL1        0.0897
     18 N         139.1060  138.7703  162.4938 N.3     1  UNL1       -0.2682
     19 C         140.1996  139.7474  162.1792 C.3     1  UNL1        0.0897
@<TRIPOS>BOND
     1    17    18    1
     2    18    19    1
     3    18    16    1
     4    16    15    1
     5    15    14    1
     6    14     1    1
     7     1     2    1
     8     2     3   ar
     9     3     4   ar
    10     4     5   ar
    11     5     6   ar
    12     6     7   ar
    13     1     8    1
    14     8     9   ar
    15     9    10   ar
    16    10    11   ar
    17    11    12   ar
    18    12    13   ar
    19     7     2   ar
    20    13     8   ar
