@<TRIPOS>MOLECULE
*****
 45 49 0 0 0
SMALL
GASTEIGER

@<TRIPOS>ATOM
      1 C         141.9452  137.7494  157.6328 C.2     1  UNL1        0.2458
      2 O         140.7847  137.2640  156.8159 O.2     1  UNL1       -0.2701
      3 N         143.3386  137.6580  157.0849 N.am    1  UNL1       -0.3009
      4 H         144.1003  137.9766  157.6212 H       1  UNL1        0.1497
      5 C         141.2468  139.4795  161.7279 C.ar    1  UNL1        0.0536
      6 C         142.4428  138.6102  161.4750 C.ar    1  UNL1        0.0048
      7 C         142.6755  138.0335  160.1099 C.ar    1  UNL1        0.0047
      8 C         141.7124  138.3261  158.9978 C.ar    1  UNL1        0.0534
      9 C         140.5164  139.1953  159.2508 C.ar    1  UNL1        0.0047
     10 C         140.2836  139.7720  160.6158 C.ar    1  UNL1        0.0048
     11 C         140.1197  142.7688  165.7583 C.ar    1  UNL1        0.0143
     12 C         140.0852  142.6054  167.2490 C.ar    1  UNL1        0.0091
     13 C         140.4195  141.2798  167.8661 C.ar    1  UNL1        0.0698
     14 C         140.7884  140.1174  166.9926 C.ar    1  UNL1        0.0326
     15 C         140.8228  140.2808  165.5019 C.ar    1  UNL1        0.1192
     16 N         141.1476  139.3227  164.3945 N.ar    1  UNL1       -0.2082
     17 C         141.0140  140.0562  163.0929 C.ar    1  UNL1        0.2296
     18 O         140.6066  141.4676  163.3959 O.2     1  UNL1       -0.4349
     19 C         140.4885  141.6065  164.8848 C.ar    1  UNL1        0.1607
     20 C         140.7603  144.7573  164.2138 C.3     1  UNL1        0.0048
     21 C         139.7853  144.0944  165.1412 C.3     1  UNL1        0.0254
     22 C         138.4759  144.7573  165.4515 C.3     1  UNL1        0.0048
     23 C         140.3851  141.1164  169.3568 C.1     1  UNL1        0.1005
     24 N         140.3506  140.9531  170.8475 N.1     1  UNL1       -0.1908
     25 C         143.5714  137.0813  155.7199 C.3     1  UNL1        0.0896
     26 C         143.3581  135.6164  155.4783 C.3     1  UNL1        0.0196
     27 C         142.6001  135.1585  154.2676 C.3     1  UNL1        0.0020
     28 C         142.3868  133.6936  154.0259 C.3     1  UNL1        0.0044
     29 C         142.9314  132.6865  154.9950 C.3     1  UNL1        0.0223
     30 C         143.6894  133.1443  156.2058 C.3     1  UNL1        0.0044
     31 C         143.9028  134.6093  156.4474 C.3     1  UNL1        0.0020
     32 C         142.7181  131.2215  154.7533 C.ar    1  UNL1       -0.0226
     33 C         141.4311  130.5725  155.1684 C.ar    1  UNL1       -0.0004
     34 C         141.2177  129.1075  154.9268 C.ar    1  UNL1        0.0711
     35 C         142.2915  128.2916  154.2700 C.ar    1  UNL1        0.0077
     36 C         143.5785  128.9407  153.8549 C.ar    1  UNL1        0.0711
     37 C         143.7919  130.4056  154.0966 C.ar    1  UNL1       -0.0004
     38 C         139.9307  128.4586  155.3419 C.3     1  UNL1        0.4186
     39 F         138.6436  127.8097  155.7570 F       1  UNL1       -0.1659
     40 F         140.6061  127.1193  155.3423 F       1  UNL1       -0.1659
     41 F         139.2553  129.7979  155.3414 F       1  UNL1       -0.1659
     42 C         144.6523  128.1247  153.1982 C.3     1  UNL1        0.4186
     43 F         145.7260  127.3087  152.5414 F       1  UNL1       -0.1659
     44 F         145.3135  129.3821  152.7169 F       1  UNL1       -0.1659
     45 F         143.9910  126.8672  153.6795 F       1  UNL1       -0.1659
@<TRIPOS>BOND
     1    20    21    1
     2    21    22    1
     3    21    11    1
     4    11    12   ar
     5    12    13   ar
     6    13    23    1
     7    23    24    3
     8    13    14   ar
     9    14    15   ar
    10    15    16   ar
    11    16    17   ar
    12    17     5    1
    13     5     6   ar
    14     6     7   ar
    15     7     8   ar
    16     8     1    1
    17     1     2    2
    18     1     3   am
    19     3    25    1
    20    26    25    1
    21    26    27    1
    22    27    28    1
    23    28    29    1
    24    29    32    1
    25    32    33   ar
    26    33    34   ar
    27    34    38    1
    28    38    39    1
    29    38    40    1
    30    38    41    1
    31    34    35   ar
    32    35    36   ar
    33    36    42    1
    34    42    43    1
    35    42    44    1
    36    42    45    1
    37    36    37   ar
    38    29    30    1
    39    30    31    1
    40     8     9   ar
    41     9    10   ar
    42    17    18   ar
    43    18    19   ar
    44    19    11   ar
    45    19    15   ar
    46    10     5   ar
    47    31    26    1
    48    37    32   ar
    49     3     4    1
@<TRIPOS>MOLECULE
*****
 45 49 0 0 0
SMALL
GASTEIGER

@<TRIPOS>ATOM
      1 C         141.6814  138.0425  158.8327 C.2     1  UNL1        0.2458
      2 O         140.4135  138.0157  158.0316 O.2     1  UNL1       -0.2701
      3 N         142.9611  137.5454  158.2284 N.am    1  UNL1       -0.3009
      4 H         143.7932  137.5630  158.7543 H       1  UNL1        0.1497
      5 C         141.6457  139.6145  163.0491 C.ar    1  UNL1        0.0536
      6 C         142.5303  138.4584  162.6872 C.ar    1  UNL1        0.0048
      7 C         142.5422  137.9345  161.2817 C.ar    1  UNL1        0.0047
      8 C         141.6695  138.5665  160.2382 C.ar    1  UNL1        0.0534
      9 C         140.7849  139.7226  160.6001 C.ar    1  UNL1        0.0047
     10 C         140.7730  140.2465  162.0056 C.ar    1  UNL1        0.0048
     11 C         140.3276  140.6587  168.0995 C.ar    1  UNL1        0.0143
     12 C         140.9561  141.4824  169.1841 C.ar    1  UNL1        0.0091
     13 C         142.2336  142.2223  168.9191 C.ar    1  UNL1        0.0698
     14 C         142.8828  142.1385  167.5694 C.ar    1  UNL1        0.0326
     15 C         142.2543  141.3148  166.4848 C.ar    1  UNL1        0.1192
     16 N         142.6604  141.0451  165.0662 N.ar    1  UNL1       -0.2082
     17 C         141.6338  140.1385  164.4546 C.ar    1  UNL1        0.2296
     18 O         140.5932  139.8478  165.4951 O.2     1  UNL1       -0.4349
     19 C         140.9767  140.5748  166.7499 C.ar    1  UNL1        0.1607
     20 C         138.4499  139.9268  169.7393 C.3     1  UNL1        0.0048
     21 C         139.0500  139.9187  168.3646 C.3     1  UNL1        0.0254
     22 C         138.3723  139.1707  167.2548 C.3     1  UNL1        0.0048
     23 C         142.8621  143.0461  170.0038 C.1     1  UNL1        0.1005
     24 N         143.4906  143.8699  171.0884 N.1     1  UNL1       -0.1908
     25 C         142.9730  137.0214  156.8230 C.3     1  UNL1        0.0896
     26 C         142.7842  135.5554  156.5675 C.3     1  UNL1        0.0196
     27 C         143.5004  134.5477  157.4169 C.3     1  UNL1        0.0020
     28 C         143.3116  133.0818  157.1614 C.3     1  UNL1        0.0044
     29 C         142.4065  132.6235  156.0565 C.3     1  UNL1        0.0223
     30 C         141.6903  133.6313  155.2070 C.3     1  UNL1        0.0044
     31 C         141.8791  135.0972  155.4625 C.3     1  UNL1        0.0020
     32 C         142.2177  131.1575  155.8010 C.ar    1  UNL1       -0.0226
     33 C         143.0961  130.1566  156.4913 C.ar    1  UNL1       -0.0004
     34 C         142.9073  128.6907  156.2358 C.ar    1  UNL1        0.0711
     35 C         141.8400  128.2256  155.2899 C.ar    1  UNL1        0.0077
     36 C         140.9616  129.2266  154.5995 C.ar    1  UNL1        0.0711
     37 C         141.1505  130.6925  154.8551 C.ar    1  UNL1       -0.0004
     38 C         143.7857  127.6898  156.9262 C.3     1  UNL1        0.4186
     39 F         144.6641  126.6889  157.6165 F       1  UNL1       -0.1659
     40 F         144.7525  128.7813  157.2783 F       1  UNL1       -0.1659
     41 F         142.8189  126.5984  156.5740 F       1  UNL1       -0.1659
     42 C         139.8944  128.7614  153.6537 C.3     1  UNL1        0.4186
     43 F         138.8272  128.2963  152.7078 F       1  UNL1       -0.1659
     44 F         139.6793  130.1753  153.2011 F       1  UNL1       -0.1659
     45 F         140.1095  127.3476  154.1062 F       1  UNL1       -0.1659
@<TRIPOS>BOND
     1    20    21    1
     2    21    22    1
     3    21    11    1
     4    11    12   ar
     5    12    13   ar
     6    13    23    1
     7    23    24    3
     8    13    14   ar
     9    14    15   ar
    10    15    16   ar
    11    16    17   ar
    12    17     5    1
    13     5     6   ar
    14     6     7   ar
    15     7     8   ar
    16     8     1    1
    17     1     2    2
    18     1     3   am
    19     3    25    1
    20    26    25    1
    21    26    27    1
    22    27    28    1
    23    28    29    1
    24    29    32    1
    25    32    33   ar
    26    33    34   ar
    27    34    38    1
    28    38    39    1
    29    38    40    1
    30    38    41    1
    31    34    35   ar
    32    35    36   ar
    33    36    42    1
    34    42    43    1
    35    42    44    1
    36    42    45    1
    37    36    37   ar
    38    29    30    1
    39    30    31    1
    40     8     9   ar
    41     9    10   ar
    42    17    18   ar
    43    18    19   ar
    44    19    11   ar
    45    19    15   ar
    46    10     5   ar
    47    31    26    1
    48    37    32   ar
    49     3     4    1
@<TRIPOS>MOLECULE
*****
 45 49 0 0 0
SMALL
GASTEIGER

@<TRIPOS>ATOM
      1 C         142.0806  137.5327  157.4774 C.2     1  UNL1        0.2458
      2 O         140.8574  136.9711  156.8153 O.2     1  UNL1       -0.2701
      3 N         143.4181  137.4104  156.8095 N.am    1  UNL1       -0.3009
      4 H         144.2209  137.7790  157.2441 H       1  UNL1        0.1497
      5 C         141.7374  139.5847  161.4676 C.ar    1  UNL1        0.0536
      6 C         140.7536  139.8938  160.3783 C.ar    1  UNL1        0.0048
      7 C         140.8681  139.2097  159.0482 C.ar    1  UNL1        0.0047
      8 C         141.9662  138.2167  158.8075 C.ar    1  UNL1        0.0534
      9 C         142.9500  137.9076  159.8968 C.ar    1  UNL1        0.0047
     10 C         142.8355  138.5917  161.2269 C.ar    1  UNL1        0.0048
     11 C         140.1108  142.6200  165.5266 C.ar    1  UNL1        0.0143
     12 C         140.6303  142.8592  166.9133 C.ar    1  UNL1        0.0091
     13 C         141.8673  142.1528  167.3829 C.ar    1  UNL1        0.0698
     14 C         142.5850  141.2072  166.4659 C.ar    1  UNL1        0.0326
     15 C         142.0655  140.9681  165.0792 C.ar    1  UNL1        0.1192
     16 N         142.5566  140.0992  163.9594 N.ar    1  UNL1       -0.2082
     17 C         141.6230  140.2687  162.7977 C.ar    1  UNL1        0.2296
     18 O         140.5549  141.2422  163.1995 O.2     1  UNL1       -0.4349
     19 C         140.8284  141.6745  164.6096 C.ar    1  UNL1        0.1607
     20 C         137.7798  142.5540  164.3811 C.3     1  UNL1        0.0048
     21 C         138.8737  143.3264  165.0570 C.3     1  UNL1        0.0254
     22 C         138.7305  144.8054  165.2632 C.3     1  UNL1        0.0048
     23 C         142.3869  142.3920  168.7697 C.1     1  UNL1        0.1005
     24 N         142.9063  142.6311  170.1564 N.1     1  UNL1       -0.1908
     25 C         143.5324  136.7264  155.4794 C.3     1  UNL1        0.0896
     26 C         143.3503  135.2407  155.3819 C.3     1  UNL1        0.0196
     27 C         143.8925  134.3465  156.4573 C.3     1  UNL1        0.0020
     28 C         143.7104  132.8608  156.3598 C.3     1  UNL1        0.0044
     29 C         142.9861  132.2693  155.1870 C.3     1  UNL1        0.0223
     30 C         142.4440  133.1636  154.1115 C.3     1  UNL1        0.0044
     31 C         142.6261  134.6493  154.2090 C.3     1  UNL1        0.0020
     32 C         142.8040  130.7836  155.0895 C.ar    1  UNL1       -0.0226
     33 C         143.9859  129.8988  154.8246 C.ar    1  UNL1       -0.0004
     34 C         143.8038  128.4131  154.7271 C.ar    1  UNL1        0.0711
     35 C         142.4397  127.8122  154.8946 C.ar    1  UNL1        0.0077
     36 C         141.2578  128.6969  155.1595 C.ar    1  UNL1        0.0711
     37 C         141.4399  130.1826  155.2570 C.ar    1  UNL1       -0.0004
     38 C         144.9858  127.5285  154.4622 C.3     1  UNL1        0.4186
     39 F         146.1678  126.6437  154.1973 F       1  UNL1       -0.1659
     40 F         145.8821  128.5237  155.1375 F       1  UNL1       -0.1659
     41 F         144.0896  126.5332  153.7869 F       1  UNL1       -0.1659
     42 C         139.8937  128.0959  155.3269 C.3     1  UNL1        0.4186
     43 F         138.5296  127.4949  155.4944 F       1  UNL1       -0.1659
     44 F         139.2888  129.4686  155.3261 F       1  UNL1       -0.1659
     45 F         140.4985  126.7233  155.3277 F       1  UNL1       -0.1659
@<TRIPOS>BOND
     1    20    21    1
     2    21    22    1
     3    21    11    1
     4    11    12   ar
     5    12    13   ar
     6    13    23    1
     7    23    24    3
     8    13    14   ar
     9    14    15   ar
    10    15    16   ar
    11    16    17   ar
    12    17     5    1
    13     5     6   ar
    14     6     7   ar
    15     7     8   ar
    16     8     1    1
    17     1     2    2
    18     1     3   am
    19     3    25    1
    20    26    25    1
    21    26    27    1
    22    27    28    1
    23    28    29    1
    24    29    32    1
    25    32    33   ar
    26    33    34   ar
    27    34    38    1
    28    38    39    1
    29    38    40    1
    30    38    41    1
    31    34    35   ar
    32    35    36   ar
    33    36    42    1
    34    42    43    1
    35    42    44    1
    36    42    45    1
    37    36    37   ar
    38    29    30    1
    39    30    31    1
    40     8     9   ar
    41     9    10   ar
    42    17    18   ar
    43    18    19   ar
    44    19    11   ar
    45    19    15   ar
    46    10     5   ar
    47    31    26    1
    48    37    32   ar
    49     3     4    1
@<TRIPOS>MOLECULE
*****
 45 49 0 0 0
SMALL
GASTEIGER

@<TRIPOS>ATOM
      1 C         144.6891  141.3016  157.2380 C.2     1  UNL1        0.2458
      2 O         144.8555  139.9274  156.6604 O.2     1  UNL1       -0.2701
      3 N         145.0153  142.5083  156.4088 N.am    1  UNL1       -0.3009
      4 H         144.9061  143.4103  156.7880 H       1  UNL1        0.1497
      5 C         143.2110  141.8043  161.4585 C.ar    1  UNL1        0.0536
      6 C         143.3741  140.4301  160.8796 C.ar    1  UNL1        0.0048
      7 C         143.8668  140.2626  159.4728 C.ar    1  UNL1        0.0047
      8 C         144.1964  141.4692  158.6448 C.ar    1  UNL1        0.0534
      9 C         144.0333  142.8433  159.2237 C.ar    1  UNL1        0.0047
     10 C         143.5407  143.0108  160.6306 C.ar    1  UNL1        0.0048
     11 C         140.2390  142.9269  165.7295 C.ar    1  UNL1        0.0143
     12 C         140.4596  142.7960  167.2074 C.ar    1  UNL1        0.0091
     13 C         141.7540  142.2439  167.7265 C.ar    1  UNL1        0.0698
     14 C         142.8280  141.8227  166.7677 C.ar    1  UNL1        0.0326
     15 C         142.6074  141.9537  165.2898 C.ar    1  UNL1        0.1192
     16 N         143.4760  141.6237  164.1122 N.ar    1  UNL1       -0.2082
     17 C         142.7183  141.9718  162.8654 C.ar    1  UNL1        0.2296
     18 O         141.3815  142.5170  163.2723 O.2     1  UNL1       -0.4349
     19 C         141.3129  142.5058  164.7707 C.ar    1  UNL1        0.1607
     20 C         138.6162  144.9297  165.4047 C.3     1  UNL1        0.0048
     21 C         138.9445  143.4790  165.2104 C.3     1  UNL1        0.0254
     22 C         137.9782  142.5804  164.4970 C.3     1  UNL1        0.0048
     23 C         141.9746  142.1130  169.2044 C.1     1  UNL1        0.1005
     24 N         142.1951  141.9821  170.6823 N.1     1  UNL1       -0.1908
     25 C         145.5080  142.3407  155.0020 C.3     1  UNL1        0.0896
     26 C         146.9801  142.3630  154.7152 C.3     1  UNL1        0.0196
     27 C         147.4926  143.0340  153.4754 C.3     1  UNL1        0.0020
     28 C         148.9648  143.0563  153.1886 C.3     1  UNL1        0.0044
     29 C         149.9244  142.4076  154.1416 C.3     1  UNL1        0.0223
     30 C         149.4119  141.7366  155.3815 C.3     1  UNL1        0.0044
     31 C         147.9398  141.7143  155.6683 C.3     1  UNL1        0.0020
     32 C         151.3966  142.4299  153.8548 C.ar    1  UNL1       -0.0226
     33 C         152.1085  141.1617  153.4879 C.ar    1  UNL1       -0.0004
     34 C         153.5807  141.1840  153.2011 C.ar    1  UNL1        0.0711
     35 C         154.3409  142.4747  153.2813 C.ar    1  UNL1        0.0077
     36 C         153.6289  143.7429  153.6483 C.ar    1  UNL1        0.0711
     37 C         152.1568  143.7206  153.9350 C.ar    1  UNL1       -0.0004
     38 C         154.2926  139.9157  152.8341 C.3     1  UNL1        0.4186
     39 F         155.0044  138.6474  152.4672 F       1  UNL1       -0.1659
     40 F         155.5936  140.6605  152.7841 F       1  UNL1       -0.1659
     41 F         152.9915  139.1710  152.8841 F       1  UNL1       -0.1659
     42 C         154.3892  145.0334  153.7284 C.3     1  UNL1        0.4186
     43 F         155.1495  146.3240  153.8086 F       1  UNL1       -0.1659
     44 F         153.3757  145.5704  154.6951 F       1  UNL1       -0.1659
     45 F         155.4027  144.4965  152.7617 F       1  UNL1       -0.1659
@<TRIPOS>BOND
     1    20    21    1
     2    21    22    1
     3    21    11    1
     4    11    12   ar
     5    12    13   ar
     6    13    23    1
     7    23    24    3
     8    13    14   ar
     9    14    15   ar
    10    15    16   ar
    11    16    17   ar
    12    17     5    1
    13     5     6   ar
    14     6     7   ar
    15     7     8   ar
    16     8     1    1
    17     1     2    2
    18     1     3   am
    19     3    25    1
    20    26    25    1
    21    26    27    1
    22    27    28    1
    23    28    29    1
    24    29    32    1
    25    32    33   ar
    26    33    34   ar
    27    34    38    1
    28    38    39    1
    29    38    40    1
    30    38    41    1
    31    34    35   ar
    32    35    36   ar
    33    36    42    1
    34    42    43    1
    35    42    44    1
    36    42    45    1
    37    36    37   ar
    38    29    30    1
    39    30    31    1
    40     8     9   ar
    41     9    10   ar
    42    17    18   ar
    43    18    19   ar
    44    19    11   ar
    45    19    15   ar
    46    10     5   ar
    47    31    26    1
    48    37    32   ar
    49     3     4    1
@<TRIPOS>MOLECULE
*****
 45 49 0 0 0
SMALL
GASTEIGER

@<TRIPOS>ATOM
      1 C         142.5234  139.9970  159.7243 C.2     1  UNL1        0.2458
      2 O         143.7125  140.5841  160.4250 O.2     1  UNL1       -0.2701
      3 N         141.1853  140.6669  159.8279 N.am    1  UNL1       -0.3009
      4 H         140.4049  140.2815  159.3680 H       1  UNL1        0.1497
      5 C         142.9703  136.2252  157.3108 C.ar    1  UNL1        0.0536
      6 C         143.0092  136.1659  158.8091 C.ar    1  UNL1        0.0048
      7 C         142.8602  137.4232  159.6136 C.ar    1  UNL1        0.0047
      8 C         142.6723  138.7397  158.9198 C.ar    1  UNL1        0.0534
      9 C         142.6334  138.7991  157.4214 C.ar    1  UNL1        0.0047
     10 C         142.7824  137.5418  156.6170 C.ar    1  UNL1        0.0048
     11 C         142.4640  132.4530  153.5895 C.ar    1  UNL1        0.0143
     12 C         143.0997  131.1100  153.3838 C.ar    1  UNL1        0.0091
     13 C         144.1130  130.6017  154.3659 C.ar    1  UNL1        0.0698
     14 C         144.4908  131.4362  155.5537 C.ar    1  UNL1        0.0326
     15 C         143.8551  132.7792  155.7594 C.ar    1  UNL1        0.1192
     16 N         144.0266  133.8177  156.8280 N.ar    1  UNL1       -0.2082
     17 C         143.1192  134.9680  156.5063 C.ar    1  UNL1        0.2296
     18 O         142.3869  134.6403  155.2389 O.2     1  UNL1       -0.4349
     19 C         142.8417  133.2876  154.7773 C.ar    1  UNL1        0.1607
     20 C         141.6348  134.3055  151.9675 C.3     1  UNL1        0.0048
     21 C         141.4506  132.9614  152.6074 C.3     1  UNL1        0.0254
     22 C         140.2528  132.1256  152.2651 C.3     1  UNL1        0.0048
     23 C         144.7488  129.2586  154.1602 C.1     1  UNL1        0.1005
     24 N         145.3845  127.9156  153.9545 N.1     1  UNL1       -0.1908
     25 C         141.0364  141.9241  160.6324 C.3     1  UNL1        0.0896
     26 C         141.0801  141.8655  162.1306 C.3     1  UNL1        0.0196
     27 C         140.7085  140.5987  162.8427 C.3     1  UNL1        0.0020
     28 C         140.7522  140.5400  164.3409 C.3     1  UNL1        0.0044
     29 C         141.1676  141.7481  165.1270 C.3     1  UNL1        0.0223
     30 C         141.5392  143.0150  164.4149 C.3     1  UNL1        0.0044
     31 C         141.4955  143.0737  162.9167 C.3     1  UNL1        0.0020
     32 C         141.2113  141.6894  166.6252 C.ar    1  UNL1       -0.0226
     33 C         140.0221  141.1908  167.3914 C.ar    1  UNL1       -0.0004
     34 C         140.0658  141.1321  168.8896 C.ar    1  UNL1        0.0711
     35 C         141.2989  141.5721  169.6217 C.ar    1  UNL1        0.0077
     36 C         142.4882  142.0708  168.8555 C.ar    1  UNL1        0.0711
     37 C         142.4444  142.1295  167.3573 C.ar    1  UNL1       -0.0004
     38 C         138.8765  140.6334  169.6556 C.3     1  UNL1        0.4186
     39 F         137.6872  140.1347  170.4216 F       1  UNL1       -0.1659
     40 F         138.9743  141.8139  170.5759 F       1  UNL1       -0.1659
     41 F         138.7787  139.4530  168.7354 F       1  UNL1       -0.1659
     42 C         143.7212  142.5108  169.5877 C.3     1  UNL1        0.4186
     43 F         144.9542  142.9508  170.3198 F       1  UNL1       -0.1659
     44 F         143.0837  142.1290  170.8907 F       1  UNL1       -0.1659
     45 F         144.3587  142.8925  168.2846 F       1  UNL1       -0.1659
@<TRIPOS>BOND
     1    20    21    1
     2    21    22    1
     3    21    11    1
     4    11    12   ar
     5    12    13   ar
     6    13    23    1
     7    23    24    3
     8    13    14   ar
     9    14    15   ar
    10    15    16   ar
    11    16    17   ar
    12    17     5    1
    13     5     6   ar
    14     6     7   ar
    15     7     8   ar
    16     8     1    1
    17     1     2    2
    18     1     3   am
    19     3    25    1
    20    26    25    1
    21    26    27    1
    22    27    28    1
    23    28    29    1
    24    29    32    1
    25    32    33   ar
    26    33    34   ar
    27    34    38    1
    28    38    39    1
    29    38    40    1
    30    38    41    1
    31    34    35   ar
    32    35    36   ar
    33    36    42    1
    34    42    43    1
    35    42    44    1
    36    42    45    1
    37    36    37   ar
    38    29    30    1
    39    30    31    1
    40     8     9   ar
    41     9    10   ar
    42    17    18   ar
    43    18    19   ar
    44    19    11   ar
    45    19    15   ar
    46    10     5   ar
    47    31    26    1
    48    37    32   ar
    49     3     4    1
@<TRIPOS>MOLECULE
*****
 45 49 0 0 0
SMALL
GASTEIGER

@<TRIPOS>ATOM
      1 C         144.8026  141.4220  157.2346 C.2     1  UNL1        0.2458
      2 O         145.0183  140.0535  156.6596 O.2     1  UNL1       -0.2701
      3 N         145.0963  142.6381  156.4072 N.am    1  UNL1       -0.3009
      4 H         144.9547  143.5363  156.7846 H       1  UNL1        0.1497
      5 C         143.2743  141.8790  161.4425 C.ar    1  UNL1        0.0536
      6 C         144.4375  142.7018  160.9735 C.ar    1  UNL1        0.0048
      7 C         144.9469  142.5494  159.5709 C.ar    1  UNL1        0.0047
      8 C         144.2932  141.5743  158.6372 C.ar    1  UNL1        0.0534
      9 C         143.1299  140.7515  159.1062 C.ar    1  UNL1        0.0047
     10 C         142.6205  140.9039  160.5088 C.ar    1  UNL1        0.0048
     11 C         140.2421  142.9328  165.6886 C.ar    1  UNL1        0.0143
     12 C         140.4496  142.7972  167.1680 C.ar    1  UNL1        0.0091
     13 C         141.7470  142.2622  167.6974 C.ar    1  UNL1        0.0698
     14 C         142.8370  141.8626  166.7474 C.ar    1  UNL1        0.0326
     15 C         142.6295  141.9983  165.2680 C.ar    1  UNL1        0.1192
     16 N         143.5150  141.6880  164.0978 N.ar    1  UNL1       -0.2082
     17 C         142.7648  142.0314  162.8450 C.ar    1  UNL1        0.2296
     18 O         141.4157  142.5538  163.2411 O.2     1  UNL1       -0.4349
     19 C         141.3320  142.5334  164.7386 C.ar    1  UNL1        0.1607
     20 C         138.6107  144.9213  165.3214 C.3     1  UNL1        0.0048
     21 C         138.9446  143.4679  165.1592 C.3     1  UNL1        0.0254
     22 C         137.9810  142.5496  164.4676 C.3     1  UNL1        0.0048
     23 C         141.9545  142.1265  169.1768 C.1     1  UNL1        0.1005
     24 N         142.1620  141.9909  170.6562 N.1     1  UNL1       -0.1908
     25 C         145.6058  142.4857  155.0046 C.3     1  UNL1        0.0896
     26 C         147.0818  142.4960  154.7375 C.3     1  UNL1        0.0196
     27 C         148.0163  141.7735  155.6620 C.3     1  UNL1        0.0020
     28 C         149.4923  141.7838  155.3949 C.3     1  UNL1        0.0044
     29 C         150.0338  142.5165  154.2033 C.3     1  UNL1        0.0223
     30 C         149.0992  143.2390  153.2787 C.3     1  UNL1        0.0044
     31 C         147.6232  143.2288  153.5458 C.3     1  UNL1        0.0020
     32 C         151.5097  142.5267  153.9362 C.ar    1  UNL1       -0.0226
     33 C         152.2917  143.7971  154.0936 C.ar    1  UNL1       -0.0004
     34 C         153.7676  143.8073  153.8265 C.ar    1  UNL1        0.0711
     35 C         154.4617  142.5471  153.4020 C.ar    1  UNL1        0.0077
     36 C         153.6798  141.2767  153.2447 C.ar    1  UNL1        0.0711
     37 C         152.2038  141.2665  153.5117 C.ar    1  UNL1       -0.0004
     38 C         154.5495  145.0777  153.9839 C.3     1  UNL1        0.4186
     39 F         155.3312  146.3481  154.1413 F       1  UNL1       -0.1659
     40 F         155.6499  144.5050  153.1407 F       1  UNL1       -0.1659
     41 F         153.4491  145.6505  154.8271 F       1  UNL1       -0.1659
     42 C         154.3740  140.0166  152.8202 C.3     1  UNL1        0.4186
     43 F         155.0681  138.7564  152.3957 F       1  UNL1       -0.1659
     44 F         153.0699  139.2779  152.8806 F       1  UNL1       -0.1659
     45 F         155.6781  140.7553  152.7598 F       1  UNL1       -0.1659
@<TRIPOS>BOND
     1    20    21    1
     2    21    22    1
     3    21    11    1
     4    11    12   ar
     5    12    13   ar
     6    13    23    1
     7    23    24    3
     8    13    14   ar
     9    14    15   ar
    10    15    16   ar
    11    16    17   ar
    12    17     5    1
    13     5     6   ar
    14     6     7   ar
    15     7     8   ar
    16     8     1    1
    17     1     2    2
    18     1     3   am
    19     3    25    1
    20    26    25    1
    21    26    27    1
    22    27    28    1
    23    28    29    1
    24    29    32    1
    25    32    33   ar
    26    33    34   ar
    27    34    38    1
    28    38    39    1
    29    38    40    1
    30    38    41    1
    31    34    35   ar
    32    35    36   ar
    33    36    42    1
    34    42    43    1
    35    42    44    1
    36    42    45    1
    37    36    37   ar
    38    29    30    1
    39    30    31    1
    40     8     9   ar
    41     9    10   ar
    42    17    18   ar
    43    18    19   ar
    44    19    11   ar
    45    19    15   ar
    46    10     5   ar
    47    31    26    1
    48    37    32   ar
    49     3     4    1
@<TRIPOS>MOLECULE
*****
 45 49 0 0 0
SMALL
GASTEIGER

@<TRIPOS>ATOM
      1 C         142.5238  139.8629  159.6051 C.2     1  UNL1        0.2458
      2 O         143.7314  140.5801  160.1316 O.2     1  UNL1       -0.2701
      3 N         141.1526  140.4131  159.8642 N.am    1  UNL1       -0.3009
      4 H         140.3599  139.9424  159.5186 H       1  UNL1        0.1497
      5 C         143.0145  136.0609  157.2484 C.ar    1  UNL1        0.0536
      6 C         143.0863  136.0293  158.7463 C.ar    1  UNL1        0.0048
      7 C         142.9227  137.2967  159.5318 C.ar    1  UNL1        0.0047
      8 C         142.6873  138.5956  158.8195 C.ar    1  UNL1        0.0534
      9 C         142.6156  138.6272  157.3216 C.ar    1  UNL1        0.0047
     10 C         142.7791  137.3598  156.5360 C.ar    1  UNL1        0.0048
     11 C         142.5560  132.2300  153.5812 C.ar    1  UNL1        0.0143
     12 C         143.2054  130.8904  153.3970 C.ar    1  UNL1        0.0091
     13 C         144.2207  130.4064  154.3893 C.ar    1  UNL1        0.0698
     14 C         144.5868  131.2618  155.5658 C.ar    1  UNL1        0.0326
     15 C         143.9374  132.6014  155.7500 C.ar    1  UNL1        0.1192
     16 N         144.0957  133.6571  156.8038 N.ar    1  UNL1       -0.2082
     17 C         143.1781  134.7936  156.4628 C.ar    1  UNL1        0.2296
     18 O         142.4527  134.4403  155.1982 O.2     1  UNL1       -0.4349
     19 C         142.9221  133.0855  154.7577 C.ar    1  UNL1        0.1607
     20 C         141.6863  134.0719  151.9685 C.3     1  UNL1        0.0048
     21 C         141.5406  132.7140  152.5889 C.3     1  UNL1        0.0254
     22 C         140.3795  131.8401  152.2170 C.3     1  UNL1        0.0048
     23 C         144.8701  129.0667  154.2051 C.1     1  UNL1        0.1005
     24 N         145.5194  127.7272  154.0209 N.1     1  UNL1       -0.1908
     25 C         140.9890  141.6804  160.6498 C.3     1  UNL1        0.0896
     26 C         141.0152  141.6421  162.1490 C.3     1  UNL1        0.0196
     27 C         139.9565  140.8889  162.8986 C.3     1  UNL1        0.0020
     28 C         139.9827  140.8507  164.3979 C.3     1  UNL1        0.0044
     29 C         141.0675  141.5655  165.1476 C.3     1  UNL1        0.0223
     30 C         142.1263  142.3188  164.3979 C.3     1  UNL1        0.0044
     31 C         142.1001  142.3570  162.8986 C.3     1  UNL1        0.0020
     32 C         141.0937  141.5273  166.6468 C.ar    1  UNL1       -0.0226
     33 C         142.2933  142.0367  167.3893 C.ar    1  UNL1       -0.0004
     34 C         142.3195  141.9984  168.8886 C.ar    1  UNL1        0.0711
     35 C         141.1460  141.4506  169.6454 C.ar    1  UNL1        0.0077
     36 C         139.9463  140.9412  168.9029 C.ar    1  UNL1        0.0711
     37 C         139.9202  140.9795  167.4037 C.ar    1  UNL1       -0.0004
     38 C         143.5192  142.5079  169.6310 C.3     1  UNL1        0.4186
     39 F         144.7189  143.0174  170.3733 F       1  UNL1       -0.1659
     40 F         142.8505  142.1838  170.9340 F       1  UNL1       -0.1659
     41 F         144.1879  142.8320  168.3280 F       1  UNL1       -0.1659
     42 C         138.7728  140.3934  169.6598 C.3     1  UNL1        0.4186
     43 F         137.5993  139.8456  170.4167 F       1  UNL1       -0.1659
     44 F         138.4193  139.5289  168.4861 F       1  UNL1       -0.1659
     45 F         139.1264  141.2579  170.8336 F       1  UNL1       -0.1659
@<TRIPOS>BOND
     1    20    21    1
     2    21    22    1
     3    21    11    1
     4    11    12   ar
     5    12    13   ar
     6    13    23    1
     7    23    24    3
     8    13    14   ar
     9    14    15   ar
    10    15    16   ar
    11    16    17   ar
    12    17     5    1
    13     5     6   ar
    14     6     7   ar
    15     7     8   ar
    16     8     1    1
    17     1     2    2
    18     1     3   am
    19     3    25    1
    20    26    25    1
    21    26    27    1
    22    27    28    1
    23    28    29    1
    24    29    32    1
    25    32    33   ar
    26    33    34   ar
    27    34    38    1
    28    38    39    1
    29    38    40    1
    30    38    41    1
    31    34    35   ar
    32    35    36   ar
    33    36    42    1
    34    42    43    1
    35    42    44    1
    36    42    45    1
    37    36    37   ar
    38    29    30    1
    39    30    31    1
    40     8     9   ar
    41     9    10   ar
    42    17    18   ar
    43    18    19   ar
    44    19    11   ar
    45    19    15   ar
    46    10     5   ar
    47    31    26    1
    48    37    32   ar
    49     3     4    1
@<TRIPOS>MOLECULE
*****
 45 49 0 0 0
SMALL
GASTEIGER

@<TRIPOS>ATOM
      1 C         142.4685  138.6207  158.7228 C.2     1  UNL1        0.2458
      2 O         143.4303  139.7135  158.3614 O.2     1  UNL1       -0.2701
      3 N         141.3575  138.8902  159.6939 N.am    1  UNL1       -0.3009
      4 H         140.7263  138.1729  159.9310 H       1  UNL1        0.1497
      5 C         142.9162  134.5337  156.8935 C.ar    1  UNL1        0.0536
      6 C         143.3644  134.7772  158.3041 C.ar    1  UNL1        0.0048
      7 C         143.2151  136.1396  158.9138 C.ar    1  UNL1        0.0047
      8 C         142.6177  137.2584  158.1130 C.ar    1  UNL1        0.0534
      9 C         142.1696  137.0149  156.7024 C.ar    1  UNL1        0.0047
     10 C         142.3189  135.6525  156.0927 C.ar    1  UNL1        0.0048
     11 C         141.9369  129.8109  154.6418 C.ar    1  UNL1        0.0143
     12 C         142.8098  128.6733  154.2015 C.ar    1  UNL1        0.0091
     13 C         144.2970  128.7576  154.3770 C.ar    1  UNL1        0.0698
     14 C         144.9116  129.9796  154.9929 C.ar    1  UNL1        0.0326
     15 C         144.0387  131.1172  155.4332 C.ar    1  UNL1        0.1192
     16 N         144.3564  132.4389  156.0673 N.ar    1  UNL1       -0.2082
     17 C         143.0655  133.1714  156.2837 C.ar    1  UNL1        0.2296
     18 O         141.9499  132.3024  155.7833 O.2     1  UNL1       -0.4349
     19 C         142.5514  131.0329  155.2576 C.ar    1  UNL1        0.1607
     20 C         139.7467  130.6859  153.5521 C.3     1  UNL1        0.0048
     21 C         140.4496  129.7266  154.4662 C.3     1  UNL1        0.0254
     22 C         139.6652  128.6828  155.2049 C.3     1  UNL1        0.0048
     23 C         145.1700  127.6199  153.9367 C.1     1  UNL1        0.1005
     24 N         146.0428  126.4823  153.4963 N.1     1  UNL1       -0.1908
     25 C         141.2083  140.2525  160.3036 C.3     1  UNL1        0.0896
     26 C         141.2108  140.4110  161.7952 C.3     1  UNL1        0.0196
     27 C         139.9467  140.1979  162.5742 C.3     1  UNL1        0.0020
     28 C         139.9492  140.3563  164.0658 C.3     1  UNL1        0.0044
     29 C         141.2157  140.7278  164.7784 C.3     1  UNL1        0.0223
     30 C         142.4798  140.9409  163.9994 C.3     1  UNL1        0.0044
     31 C         142.4774  140.7825  162.5078 C.3     1  UNL1        0.0020
     32 C         141.2182  140.8863  166.2700 C.ar    1  UNL1       -0.0226
     33 C         142.4185  141.4620  166.9611 C.ar    1  UNL1       -0.0004
     34 C         142.4210  141.6204  168.4527 C.ar    1  UNL1        0.0711
     35 C         141.2230  141.2031  169.2532 C.ar    1  UNL1        0.0077
     36 C         140.0227  140.6274  168.5621 C.ar    1  UNL1        0.0711
     37 C         140.0202  140.4690  167.0705 C.ar    1  UNL1       -0.0004
     38 C         143.6214  142.1962  169.1438 C.3     1  UNL1        0.4186
     39 F         144.8218  142.7719  169.8347 F       1  UNL1       -0.1659
     40 F         143.1866  141.5588  170.4301 F       1  UNL1       -0.1659
     41 F         144.0562  142.8335  167.8575 F       1  UNL1       -0.1659
     42 C         138.8248  140.2101  169.3627 C.3     1  UNL1        0.4186
     43 F         137.6268  139.7928  170.1632 F       1  UNL1       -0.1659
     44 F         138.4329  139.2522  168.2769 F       1  UNL1       -0.1659
     45 F         139.2167  141.1680  170.4484 F       1  UNL1       -0.1659
@<TRIPOS>BOND
     1    20    21    1
     2    21    22    1
     3    21    11    1
     4    11    12   ar
     5    12    13   ar
     6    13    23    1
     7    23    24    3
     8    13    14   ar
     9    14    15   ar
    10    15    16   ar
    11    16    17   ar
    12    17     5    1
    13     5     6   ar
    14     6     7   ar
    15     7     8   ar
    16     8     1    1
    17     1     2    2
    18     1     3   am
    19     3    25    1
    20    26    25    1
    21    26    27    1
    22    27    28    1
    23    28    29    1
    24    29    32    1
    25    32    33   ar
    26    33    34   ar
    27    34    38    1
    28    38    39    1
    29    38    40    1
    30    38    41    1
    31    34    35   ar
    32    35    36   ar
    33    36    42    1
    34    42    43    1
    35    42    44    1
    36    42    45    1
    37    36    37   ar
    38    29    30    1
    39    30    31    1
    40     8     9   ar
    41     9    10   ar
    42    17    18   ar
    43    18    19   ar
    44    19    11   ar
    45    19    15   ar
    46    10     5   ar
    47    31    26    1
    48    37    32   ar
    49     3     4    1
@<TRIPOS>MOLECULE
*****
 45 49 0 0 0
SMALL
GASTEIGER

@<TRIPOS>ATOM
      1 C         142.5490  138.5228  158.7961 C.2     1  UNL1        0.2458
      2 O         143.5027  139.6156  158.4138 O.2     1  UNL1       -0.2701
      3 N         141.4654  138.7895  159.7985 N.am    1  UNL1       -0.3009
      4 H         140.8395  138.0722  160.0493 H       1  UNL1        0.1497
      5 C         142.9389  134.4438  156.9358 C.ar    1  UNL1        0.0536
      6 C         143.4210  134.6784  158.3368 C.ar    1  UNL1        0.0048
      7 C         143.2910  136.0381  158.9568 C.ar    1  UNL1        0.0047
      8 C         142.6790  137.1631  158.1760 C.ar    1  UNL1        0.0534
      9 C         142.1969  136.9286  156.7751 C.ar    1  UNL1        0.0047
     10 C         142.3269  135.5689  156.1550 C.ar    1  UNL1        0.0048
     11 C         141.8920  129.7477  154.6589 C.ar    1  UNL1        0.0143
     12 C         142.7492  128.6036  154.2047 C.ar    1  UNL1        0.0091
     13 C         144.2384  128.6705  154.3702 C.ar    1  UNL1        0.0698
     14 C         144.8706  129.8814  154.9900 C.ar    1  UNL1        0.0326
     15 C         144.0134  131.0254  155.4443 C.ar    1  UNL1        0.1192
     16 N         144.3501  132.3391  156.0852 N.ar    1  UNL1       -0.2082
     17 C         143.0689  133.0842  156.3157 C.ar    1  UNL1        0.2296
     18 O         141.9403  132.2310  155.8173 O.2     1  UNL1       -0.4349
     19 C         142.5241  130.9586  155.2787 C.ar    1  UNL1        0.1607
     20 C         139.7190  130.5632  153.4913 C.3     1  UNL1        0.0048
     21 C         140.4026  129.6808  154.4933 C.3     1  UNL1        0.0254
     22 C         139.5968  128.7315  155.3299 C.3     1  UNL1        0.0048
     23 C         145.0957  127.5263  153.9159 C.1     1  UNL1        0.1005
     24 N         145.9528  126.3823  153.4616 N.1     1  UNL1       -0.1908
     25 C         141.3355  140.1491  160.4186 C.3     1  UNL1        0.0896
     26 C         141.3167  140.2939  161.9114 C.3     1  UNL1        0.0196
     27 C         142.5306  140.8026  162.6309 C.3     1  UNL1        0.0020
     28 C         142.5119  140.9473  164.1238 C.3     1  UNL1        0.0044
     29 C         141.2792  140.5834  164.8972 C.3     1  UNL1        0.0223
     30 C         140.0652  140.0747  164.1776 C.3     1  UNL1        0.0044
     31 C         140.0840  139.9299  162.6848 C.3     1  UNL1        0.0020
     32 C         141.2604  140.7282  166.3901 C.ar    1  UNL1       -0.0226
     33 C         140.0446  140.3203  167.1680 C.ar    1  UNL1       -0.0004
     34 C         140.0258  140.4650  168.6608 C.ar    1  UNL1        0.0711
     35 C         141.2230  141.0178  169.3758 C.ar    1  UNL1        0.0077
     36 C         142.4389  141.4257  168.5979 C.ar    1  UNL1        0.0711
     37 C         142.4577  141.2809  167.1050 C.ar    1  UNL1       -0.0004
     38 C         138.8098  140.0571  169.4387 C.3     1  UNL1        0.4186
     39 F         137.5939  139.6491  170.2164 F       1  UNL1       -0.1659
     40 F         139.4232  140.6136  170.6893 F       1  UNL1       -0.1659
     41 F         138.1965  139.5006  168.1880 F       1  UNL1       -0.1659
     42 C         143.6361  141.9784  169.3129 C.3     1  UNL1        0.4186
     43 F         144.8333  142.5311  170.0280 F       1  UNL1       -0.1659
     44 F         143.9320  142.8600  168.1360 F       1  UNL1       -0.1659
     45 F         143.3402  141.0967  170.4898 F       1  UNL1       -0.1659
@<TRIPOS>BOND
     1    20    21    1
     2    21    22    1
     3    21    11    1
     4    11    12   ar
     5    12    13   ar
     6    13    23    1
     7    23    24    3
     8    13    14   ar
     9    14    15   ar
    10    15    16   ar
    11    16    17   ar
    12    17     5    1
    13     5     6   ar
    14     6     7   ar
    15     7     8   ar
    16     8     1    1
    17     1     2    2
    18     1     3   am
    19     3    25    1
    20    26    25    1
    21    26    27    1
    22    27    28    1
    23    28    29    1
    24    29    32    1
    25    32    33   ar
    26    33    34   ar
    27    34    38    1
    28    38    39    1
    29    38    40    1
    30    38    41    1
    31    34    35   ar
    32    35    36   ar
    33    36    42    1
    34    42    43    1
    35    42    44    1
    36    42    45    1
    37    36    37   ar
    38    29    30    1
    39    30    31    1
    40     8     9   ar
    41     9    10   ar
    42    17    18   ar
    43    18    19   ar
    44    19    11   ar
    45    19    15   ar
    46    10     5   ar
    47    31    26    1
    48    37    32   ar
    49     3     4    1
