@<TRIPOS>MOLECULE
*****
 35 38 0 0 0
SMALL
GASTEIGER

@<TRIPOS>ATOM
      1 N         139.1312  137.8959  160.7028 N.am    1  UNL1       -0.2999
      2 C         140.0117  138.6179  159.7264 C.2     1  UNL1        0.2701
      3 O         140.9033  139.7278  160.1987 O.2     1  UNL1       -0.2706
      4 H         138.5461  137.1674  160.3927 H       1  UNL1        0.1496
      5 N         139.1582  138.8326  164.2008 N.3     1  UNL1       -0.2711
      6 C         139.6787  137.6688  163.4104 C.3     1  UNL1        0.0933
      7 C         139.1424  138.2839  162.1517 C.3     1  UNL1        0.1035
      8 C         138.6219  139.4476  162.9422 C.3     1  UNL1        0.0933
      9 C         139.1916  139.9966  168.5476 C.3     1  UNL1        0.0992
     10 C         140.3061  140.4359  167.6449 C.3     1  UNL1        0.0125
     11 C         140.2949  140.0479  166.1960 C.3     1  UNL1        0.0165
     12 C         139.1693  139.2206  165.6497 C.3     1  UNL1        0.0576
     13 C         138.0548  138.7812  166.5524 C.3     1  UNL1        0.0165
     14 C         138.0659  139.1692  168.0012 C.3     1  UNL1        0.0125
     15 C         139.2026  140.3845  169.9964 C.2     1  UNL1        0.3164
     16 O         139.2860  139.3259  171.0558 O.2     1  UNL1       -0.2501
     17 O         139.1302  141.8313  170.3860 O.3     1  UNL1       -0.4485
     18 C         140.4199  144.0194  169.8392 C.3     1  UNL1        0.0513
     19 C         140.3833  142.6527  170.4564 C.3     1  UNL1        0.2086
     20 C         140.0006  138.2299  158.2774 C.3     1  UNL1        0.2850
     21 N         141.2644  137.7668  157.6153 N.pl3   1  UNL1       -0.2091
     22 H         142.1374  138.0710  157.9537 H       1  UNL1        0.2928
     23 C         141.1980  136.8402  156.4375 C.2     1  UNL1        0.3493
     24 N         140.3133  137.0022  155.2371 N.2     1  UNL1        0.0798
     25 N         140.5733  135.8511  154.3111 N.2     1  UNL1       -0.0381
     26 C         141.6186  134.9777  154.9393 C.2     1  UNL1        0.1169
     27 C         142.2687  133.7048  154.4844 C.3     1  UNL1        0.0759
     28 C         143.3049  133.0432  155.3437 C.2     1  UNL1       -0.0158
     29 C         143.6911  133.6546  156.6579 C.2     1  UNL1        0.0678
     30 C         143.0410  134.9275  157.1128 C.2     1  UNL1        0.0123
     31 C         142.0047  135.5891  156.2535 C.2     1  UNL1        0.1019
     32 C         144.7274  132.9929  157.5172 C.3     1  UNL1        0.4183
     33 F         145.7636  132.3313  158.3765 F       1  UNL1       -0.1659
     34 F         144.2679  133.8015  158.6940 F       1  UNL1       -0.1659
     35 F         145.1869  132.1843  156.3404 F       1  UNL1       -0.1659
@<TRIPOS>BOND
     1    18    19    1
     2    19    17    1
     3    17    15    1
     4    15    16    2
     5     9    15    1
     6     9    10    1
     7    10    11    1
     8    11    12    1
     9    12     5    1
    10     5     6    1
    11     6     7    1
    12     7     1    1
    13     1     2   am
    14     2     3    2
    15     2    20    1
    16    20    21    1
    17    21    23    1
    18    23    24    2
    19    24    25    1
    20    25    26    2
    21    26    27    1
    22    27    28    1
    23    28    29    2
    24    29    32    1
    25    32    33    1
    26    32    34    1
    27    32    35    1
    28    29    30    1
    29    30    31    2
    30     7     8    1
    31    12    13    1
    32    13    14    1
    33    14     9    1
    34     8     5    1
    35    31    23    1
    36    31    26    1
    37     1     4    1
    38    21    22    1
@<TRIPOS>MOLECULE
*****
 35 38 0 0 0
SMALL
GASTEIGER

@<TRIPOS>ATOM
      1 N         142.1962  137.5777  161.0640 N.am    1  UNL1       -0.2999
      2 C         142.0532  138.5660  159.9447 C.2     1  UNL1        0.2701
      3 O         141.7047  139.9937  160.2447 O.2     1  UNL1       -0.2706
      4 H         142.4249  136.6406  160.8670 H       1  UNL1        0.1496
      5 N         141.7002  138.6390  164.4906 N.3     1  UNL1       -0.2711
      6 C         142.7517  138.8780  163.4479 C.3     1  UNL1        0.0933
      7 C         141.9907  138.0173  162.4833 C.3     1  UNL1        0.1035
      8 C         140.9393  137.7784  163.5261 C.3     1  UNL1        0.0933
      9 C         141.0838  139.9578  168.7487 C.3     1  UNL1        0.0992
     10 C         139.9270  139.9403  167.7940 C.3     1  UNL1        0.0125
     11 C         140.1324  139.5008  166.3746 C.3     1  UNL1        0.0165
     12 C         141.4947  139.0786  165.9099 C.3     1  UNL1        0.0576
     13 C         142.6516  139.0960  166.8646 C.3     1  UNL1        0.0165
     14 C         142.4461  139.5356  168.2839 C.3     1  UNL1        0.0125
     15 C         140.8784  140.3973  170.1680 C.2     1  UNL1        0.3164
     16 O         139.7578  139.8165  170.9784 O.2     1  UNL1       -0.2501
     17 O         141.7938  141.4178  170.7770 O.3     1  UNL1       -0.4485
     18 C         140.5793  143.4399  169.6878 C.3     1  UNL1        0.0513
     19 C         141.8300  142.8142  170.2302 C.3     1  UNL1        0.2086
     20 C         142.2587  138.1264  158.5253 C.3     1  UNL1        0.2850
     21 N         143.0699  136.8996  158.2300 N.pl3   1  UNL1       -0.2091
     22 H         143.7379  136.5829  158.8803 H       1  UNL1        0.2928
     23 C         142.8635  136.1555  156.9441 C.2     1  UNL1        0.3493
     24 N         142.2391  136.7071  155.6967 N.2     1  UNL1        0.0798
     25 N         142.2349  135.6216  154.6615 N.2     1  UNL1       -0.0381
     26 C         142.8567  134.3992  155.2690 C.2     1  UNL1        0.1169
     27 C         143.1193  133.0283  154.7199 C.3     1  UNL1        0.0759
     28 C         143.7704  131.9873  155.5815 C.2     1  UNL1       -0.0158
     29 C         144.1589  132.3173  156.9923 C.2     1  UNL1        0.0678
     30 C         143.8963  133.6882  157.5414 C.2     1  UNL1        0.0123
     31 C         143.2452  134.7292  156.6798 C.2     1  UNL1        0.1019
     32 C         144.8100  131.2763  157.8539 C.3     1  UNL1        0.4183
     33 F         145.4612  130.2353  158.7155 F       1  UNL1       -0.1659
     34 F         143.6798  130.3325  157.5679 F       1  UNL1       -0.1659
     35 F         145.9402  132.2200  158.1400 F       1  UNL1       -0.1659
@<TRIPOS>BOND
     1    18    19    1
     2    19    17    1
     3    17    15    1
     4    15    16    2
     5     9    15    1
     6     9    10    1
     7    10    11    1
     8    11    12    1
     9    12     5    1
    10     5     6    1
    11     6     7    1
    12     7     1    1
    13     1     2   am
    14     2     3    2
    15     2    20    1
    16    20    21    1
    17    21    23    1
    18    23    24    2
    19    24    25    1
    20    25    26    2
    21    26    27    1
    22    27    28    1
    23    28    29    2
    24    29    32    1
    25    32    33    1
    26    32    34    1
    27    32    35    1
    28    29    30    1
    29    30    31    2
    30     7     8    1
    31    12    13    1
    32    13    14    1
    33    14     9    1
    34     8     5    1
    35    31    23    1
    36    31    26    1
    37     1     4    1
    38    21    22    1
@<TRIPOS>MOLECULE
*****
 35 38 0 0 0
SMALL
GASTEIGER

@<TRIPOS>ATOM
      1 N         139.2800  138.2391  160.1844 N.am    1  UNL1       -0.2999
      2 C         140.4608  138.6453  159.3533 C.2     1  UNL1        0.2701
      3 O         141.6116  139.3682  159.9879 O.2     1  UNL1       -0.2706
      4 H         138.5246  137.7646  159.7678 H       1  UNL1        0.1496
      5 N         139.2079  139.0039  163.7233 N.3     1  UNL1       -0.2711
      6 C         138.5091  139.5381  162.5083 C.3     1  UNL1        0.0933
      7 C         139.2502  138.5558  161.6503 C.3     1  UNL1        0.1035
      8 C         139.9489  138.0217  162.8653 C.3     1  UNL1        0.0933
      9 C         139.1185  139.9542  168.1210 C.3     1  UNL1        0.0992
     10 C         138.1067  139.0138  167.5361 C.3     1  UNL1        0.0125
     11 C         138.1366  138.6970  166.0702 C.3     1  UNL1        0.0165
     12 C         139.1781  139.3206  165.1892 C.3     1  UNL1        0.0576
     13 C         140.1899  140.2610  165.7740 C.3     1  UNL1        0.0165
     14 C         140.1601  140.5778  167.2398 C.3     1  UNL1        0.0125
     15 C         139.0888  140.2710  169.5868 C.2     1  UNL1        0.3164
     16 O         137.9304  139.8228  170.4277 O.2     1  UNL1       -0.2501
     17 O         140.2176  141.0361  170.2117 O.3     1  UNL1       -0.4485
     18 C         140.4795  143.5477  169.6005 C.3     1  UNL1        0.0513
     19 C         140.0392  142.4837  170.5619 C.3     1  UNL1        0.2086
     20 C         140.4906  138.3285  157.8874 C.3     1  UNL1        0.2850
     21 N         139.4391  137.4407  157.2904 N.pl3   1  UNL1       -0.2091
     22 H         138.7188  137.0810  157.8569 H       1  UNL1        0.2928
     23 C         139.4852  137.1008  155.8301 C.2     1  UNL1        0.3493
     24 N         138.5708  137.6396  154.7702 N.2     1  UNL1        0.0798
     25 N         138.9743  137.0343  153.4584 N.2     1  UNL1       -0.0381
     26 C         140.1382  136.1214  153.7076 C.2     1  UNL1        0.1169
     27 C         140.9512  135.2581  152.7892 C.3     1  UNL1        0.0759
     28 C         142.0800  134.4358  153.3366 C.2     1  UNL1       -0.0158
     29 C         142.3958  134.4770  154.8024 C.2     1  UNL1        0.0678
     30 C         141.5828  135.3403  155.7208 C.2     1  UNL1        0.0123
     31 C         140.4540  136.1626  155.1734 C.2     1  UNL1        0.1019
     32 C         143.5247  133.6547  155.3498 C.3     1  UNL1        0.4183
     33 F         144.6535  132.8325  155.8971 F       1  UNL1       -0.1659
     34 F         142.8708  132.4096  154.8281 F       1  UNL1       -0.1659
     35 F         144.1786  134.8997  155.8715 F       1  UNL1       -0.1659
@<TRIPOS>BOND
     1    18    19    1
     2    19    17    1
     3    17    15    1
     4    15    16    2
     5     9    15    1
     6     9    10    1
     7    10    11    1
     8    11    12    1
     9    12     5    1
    10     5     6    1
    11     6     7    1
    12     7     1    1
    13     1     2   am
    14     2     3    2
    15     2    20    1
    16    20    21    1
    17    21    23    1
    18    23    24    2
    19    24    25    1
    20    25    26    2
    21    26    27    1
    22    27    28    1
    23    28    29    2
    24    29    32    1
    25    32    33    1
    26    32    34    1
    27    32    35    1
    28    29    30    1
    29    30    31    2
    30     7     8    1
    31    12    13    1
    32    13    14    1
    33    14     9    1
    34     8     5    1
    35    31    23    1
    36    31    26    1
    37     1     4    1
    38    21    22    1
@<TRIPOS>MOLECULE
*****
 35 38 0 0 0
SMALL
GASTEIGER

@<TRIPOS>ATOM
      1 N         141.2654  138.7874  158.5509 N.am    1  UNL1       -0.2999
      2 C         142.7435  138.9070  158.3255 C.2     1  UNL1        0.2701
      3 O         143.6746  139.0147  159.4966 O.2     1  UNL1       -0.2706
      4 H         140.6544  138.7167  157.7823 H       1  UNL1        0.1496
      5 N         139.9447  138.7588  161.9227 N.3     1  UNL1       -0.2711
      6 C         139.5860  139.4653  160.6491 C.3     1  UNL1        0.0933
      7 C         140.7184  138.7755  159.9476 C.3     1  UNL1        0.1035
      8 C         141.0770  138.0690  161.2212 C.3     1  UNL1        0.0933
      9 C         138.3035  138.7231  166.1126 C.3     1  UNL1        0.0992
     10 C         138.8138  137.4544  165.4962 C.3     1  UNL1        0.0125
     11 C         139.3609  137.4663  164.0996 C.3     1  UNL1        0.0165
     12 C         139.3976  138.7469  163.3193 C.3     1  UNL1        0.0576
     13 C         138.8873  140.0156  163.9358 C.3     1  UNL1        0.0165
     14 C         138.3403  140.0037  165.3323 C.3     1  UNL1        0.0125
     15 C         137.7565  138.7114  167.5092 C.2     1  UNL1        0.3164
     16 O         136.5907  137.8315  167.8508 O.2     1  UNL1       -0.2501
     17 O         138.3752  139.5796  168.5644 O.3     1  UNL1       -0.4485
     18 C         140.2026  141.4003  168.2546 C.3     1  UNL1        0.0513
     19 C         139.8215  139.9649  168.4655 C.3     1  UNL1        0.2086
     20 C         143.2906  138.9189  156.9288 C.3     1  UNL1        0.2850
     21 N         143.7678  137.6436  156.2994 N.pl3   1  UNL1       -0.2091
     22 H         144.7326  137.4647  156.2203 H       1  UNL1        0.2928
     23 C         142.7749  136.6411  155.7905 C.2     1  UNL1        0.3493
     24 N         141.5639  136.9436  154.9585 N.2     1  UNL1        0.0798
     25 N         140.8593  135.6494  154.6781 N.2     1  UNL1       -0.0381
     26 C         141.6347  134.5472  155.3367 C.2     1  UNL1        0.1169
     27 C         141.4157  133.0646  155.3991 C.3     1  UNL1        0.0759
     28 C         142.3806  132.1949  156.1491 C.2     1  UNL1       -0.0158
     29 C         143.5645  132.8078  156.8366 C.2     1  UNL1        0.0678
     30 C         143.7835  134.2904  156.7742 C.2     1  UNL1        0.0123
     31 C         142.8186  135.1600  156.0242 C.2     1  UNL1        0.1019
     32 C         144.5295  131.9380  157.5867 C.3     1  UNL1        0.4183
     33 F         145.4943  131.0683  158.3366 F       1  UNL1       -0.1659
     34 F         145.2088  133.1600  158.1299 F       1  UNL1       -0.1659
     35 F         143.8501  130.7160  157.0435 F       1  UNL1       -0.1659
@<TRIPOS>BOND
     1    18    19    1
     2    19    17    1
     3    17    15    1
     4    15    16    2
     5     9    15    1
     6     9    10    1
     7    10    11    1
     8    11    12    1
     9    12     5    1
    10     5     6    1
    11     6     7    1
    12     7     1    1
    13     1     2   am
    14     2     3    2
    15     2    20    1
    16    20    21    1
    17    21    23    1
    18    23    24    2
    19    24    25    1
    20    25    26    2
    21    26    27    1
    22    27    28    1
    23    28    29    2
    24    29    32    1
    25    32    33    1
    26    32    34    1
    27    32    35    1
    28    29    30    1
    29    30    31    2
    30     7     8    1
    31    12    13    1
    32    13    14    1
    33    14     9    1
    34     8     5    1
    35    31    23    1
    36    31    26    1
    37     1     4    1
    38    21    22    1
@<TRIPOS>MOLECULE
*****
 35 38 0 0 0
SMALL
GASTEIGER

@<TRIPOS>ATOM
      1 N         137.8518  140.5510  159.9967 N.am    1  UNL1       -0.2999
      2 C         138.9166  141.0204  159.0503 C.2     1  UNL1        0.2701
      3 O         140.2578  141.4371  159.5772 O.2     1  UNL1       -0.2706
      4 H         136.9716  140.2775  159.6508 H       1  UNL1        0.1496
      5 N         138.5189  140.4238  163.5538 N.3     1  UNL1       -0.2711
      6 C         137.5426  141.1580  162.6833 C.3     1  UNL1        0.0933
      7 C         138.1282  140.4982  161.4701 C.3     1  UNL1        0.1035
      8 C         139.1044  139.7640  162.3405 C.3     1  UNL1        0.0933
      9 C         139.3480  140.2656  167.9739 C.3     1  UNL1        0.0992
     10 C         138.4561  139.2391  167.3410 C.3     1  UNL1        0.0125
     11 C         138.1797  139.2918  165.8676 C.3     1  UNL1        0.0165
     12 C         138.7953  140.3711  165.0272 C.3     1  UNL1        0.0576
     13 C         139.6872  141.3976  165.6601 C.3     1  UNL1        0.0165
     14 C         139.9636  141.3449  167.1334 C.3     1  UNL1        0.0125
     15 C         139.6244  140.2130  169.4473 C.2     1  UNL1        0.3164
     16 O         138.7113  140.9162  170.4073 O.2     1  UNL1       -0.2501
     17 O         140.8141  139.4571  169.9606 O.3     1  UNL1       -0.4485
     18 C         142.7436  139.1814  168.2428 C.3     1  UNL1        0.0513
     19 C         142.1915  139.8139  169.4858 C.3     1  UNL1        0.2086
     20 C         138.6403  141.0731  157.5769 C.3     1  UNL1        0.2850
     21 N         137.5524  140.2253  156.9870 N.pl3   1  UNL1       -0.2091
     22 H         137.5205  139.2606  157.1807 H       1  UNL1        0.2928
     23 C         136.5132  140.8474  156.1021 C.2     1  UNL1        0.3493
     24 N         136.7733  141.7916  154.9660 N.2     1  UNL1        0.0798
     25 N         135.4523  142.1623  154.3598 N.2     1  UNL1       -0.0381
     26 C         134.3758  141.4472  155.1212 C.2     1  UNL1        0.1169
     27 C         132.8832  141.4310  154.9731 C.3     1  UNL1        0.0759
     28 C         132.0464  140.6022  155.9019 C.2     1  UNL1       -0.0158
     29 C         132.7021  139.7896  156.9788 C.2     1  UNL1        0.0678
     30 C         134.1946  139.8057  157.1269 C.2     1  UNL1        0.0123
     31 C         135.0315  140.6346  156.1981 C.2     1  UNL1        0.1019
     32 C         131.8651  138.9607  157.9076 C.3     1  UNL1        0.4183
     33 F         131.0283  138.1319  158.8364 F       1  UNL1       -0.1659
     34 F         130.7235  139.9179  157.7331 F       1  UNL1       -0.1659
     35 F         133.0068  138.0036  158.0822 F       1  UNL1       -0.1659
@<TRIPOS>BOND
     1    18    19    1
     2    19    17    1
     3    17    15    1
     4    15    16    2
     5     9    15    1
     6     9    10    1
     7    10    11    1
     8    11    12    1
     9    12     5    1
    10     5     6    1
    11     6     7    1
    12     7     1    1
    13     1     2   am
    14     2     3    2
    15     2    20    1
    16    20    21    1
    17    21    23    1
    18    23    24    2
    19    24    25    1
    20    25    26    2
    21    26    27    1
    22    27    28    1
    23    28    29    2
    24    29    32    1
    25    32    33    1
    26    32    34    1
    27    32    35    1
    28    29    30    1
    29    30    31    2
    30     7     8    1
    31    12    13    1
    32    13    14    1
    33    14     9    1
    34     8     5    1
    35    31    23    1
    36    31    26    1
    37     1     4    1
    38    21    22    1
@<TRIPOS>MOLECULE
*****
 35 38 0 0 0
SMALL
GASTEIGER

@<TRIPOS>ATOM
      1 N         141.4916  138.2649  160.1731 N.am    1  UNL1       -0.2999
      2 C         142.6056  138.7941  159.3194 C.2     1  UNL1        0.2701
      3 O         143.6885  139.6311  159.9334 O.2     1  UNL1       -0.2706
      4 H         140.7809  137.7156  159.7701 H       1  UNL1        0.1496
      5 N         141.4165  139.0077  163.7167 N.3     1  UNL1       -0.2711
      6 C         141.6126  137.7668  162.8970 C.3     1  UNL1        0.0933
      7 C         141.4605  138.5726  161.6409 C.3     1  UNL1        0.1035
      8 C         141.2644  139.8133  162.4606 C.3     1  UNL1        0.0933
      9 C         141.3231  139.9308  168.1200 C.3     1  UNL1        0.0992
     10 C         142.6114  139.5292  167.4651 C.3     1  UNL1        0.0125
     11 C         142.6425  139.2215  165.9973 C.3     1  UNL1        0.0165
     12 C         141.3853  139.3154  165.1845 C.3     1  UNL1        0.0576
     13 C         140.0970  139.7170  165.8394 C.3     1  UNL1        0.0165
     14 C         140.0659  140.0247  167.3071 C.3     1  UNL1        0.0125
     15 C         141.2918  140.2385  169.5877 C.2     1  UNL1        0.3164
     16 O         140.3011  139.5485  170.4779 O.2     1  UNL1       -0.2501
     17 O         142.2513  141.2365  170.1654 O.3     1  UNL1       -0.4485
     18 C         140.5584  143.1481  169.6862 C.3     1  UNL1        0.0513
     19 C         141.9067  142.6964  170.1635 C.3     1  UNL1        0.2086
     20 C         142.6368  138.4864  157.8517 C.3     1  UNL1        0.2850
     21 N         143.2839  137.2242  157.3635 N.pl3   1  UNL1       -0.2091
     22 H         144.2286  137.0426  157.5728 H       1  UNL1        0.2928
     23 C         142.4917  136.2388  156.5564 C.2     1  UNL1        0.3493
     24 N         141.3656  136.5677  155.6216 N.2     1  UNL1        0.0798
     25 N         140.8645  135.2836  155.0299 N.2     1  UNL1       -0.0381
     26 C         141.6808  134.1612  155.5990 C.2     1  UNL1        0.1169
     27 C         141.6383  132.6779  155.3800 C.3     1  UNL1        0.0759
     28 C         142.6015  131.7850  156.1045 C.2     1  UNL1       -0.0158
     29 C         143.6072  132.3753  157.0479 C.2     1  UNL1        0.0678
     30 C         143.6497  133.8586  157.2669 C.2     1  UNL1        0.0123
     31 C         142.6865  134.7516  156.5424 C.2     1  UNL1        0.1019
     32 C         144.5704  131.4823  157.7724 C.3     1  UNL1        0.4183
     33 F         145.5335  130.5893  158.4968 F       1  UNL1       -0.1659
     34 F         145.3411  132.6849  158.2303 F       1  UNL1       -0.1659
     35 F         143.7997  130.2797  157.3145 F       1  UNL1       -0.1659
@<TRIPOS>BOND
     1    18    19    1
     2    19    17    1
     3    17    15    1
     4    15    16    2
     5     9    15    1
     6     9    10    1
     7    10    11    1
     8    11    12    1
     9    12     5    1
    10     5     6    1
    11     6     7    1
    12     7     1    1
    13     1     2   am
    14     2     3    2
    15     2    20    1
    16    20    21    1
    17    21    23    1
    18    23    24    2
    19    24    25    1
    20    25    26    2
    21    26    27    1
    22    27    28    1
    23    28    29    2
    24    29    32    1
    25    32    33    1
    26    32    34    1
    27    32    35    1
    28    29    30    1
    29    30    31    2
    30     7     8    1
    31    12    13    1
    32    13    14    1
    33    14     9    1
    34     8     5    1
    35    31    23    1
    36    31    26    1
    37     1     4    1
    38    21    22    1
@<TRIPOS>MOLECULE
*****
 35 38 0 0 0
SMALL
GASTEIGER

@<TRIPOS>ATOM
      1 N         141.4835  138.4903  157.2122 N.am    1  UNL1       -0.2999
      2 C         142.6001  138.4634  156.2110 C.2     1  UNL1        0.2701
      3 O         144.0253  138.4314  156.6775 O.2     1  UNL1       -0.2706
      4 H         140.5481  138.5113  156.9060 H       1  UNL1        0.1496
      5 N         142.2289  138.4781  160.7560 N.3     1  UNL1       -0.2711
      6 C         142.6097  137.6160  159.5891 C.3     1  UNL1        0.0933
      7 C         141.7923  138.4853  158.6801 C.3     1  UNL1        0.1035
      8 C         141.4116  139.3474  159.8470 C.3     1  UNL1        0.0933
      9 C         143.1551  138.4631  165.1596 C.3     1  UNL1        0.0992
     10 C         141.9087  137.7999  164.6531 C.3     1  UNL1        0.0125
     11 C         141.5999  137.8050  163.1852 C.3     1  UNL1        0.0165
     12 C         142.5377  138.4731  162.2239 C.3     1  UNL1        0.0576
     13 C         143.7841  139.1362  162.7304 C.3     1  UNL1        0.0165
     14 C         144.0929  139.1312  164.1982 C.3     1  UNL1        0.0125
     15 C         143.4640  138.4581  166.6274 C.2     1  UNL1        0.3164
     16 O         144.4260  137.4531  167.1882 O.2     1  UNL1       -0.2501
     17 O         142.8107  139.4583  167.5347 O.3     1  UNL1       -0.4485
     18 C         141.6275  139.9310  169.7989 C.3     1  UNL1        0.0513
     19 C         142.5999  139.1314  168.9834 C.3     1  UNL1        0.2086
     20 C         142.2913  138.4684  154.7431 C.3     1  UNL1        0.2850
     21 N         142.8797  137.4171  153.8493 N.pl3   1  UNL1       -0.2091
     22 H         143.6965  137.6095  153.3345 H       1  UNL1        0.2928
     23 C         142.2234  136.0727  153.7400 C.2     1  UNL1        0.3493
     24 N         141.1659  135.6857  152.7491 N.2     1  UNL1        0.0798
     25 N         140.7984  134.2531  152.9991 N.2     1  UNL1       -0.0381
     26 C         141.6288  133.7546  154.1445 C.2     1  UNL1        0.1169
     27 C         141.6968  132.4220  154.8297 C.3     1  UNL1        0.0759
     28 C         142.6455  132.2140  155.9728 C.2     1  UNL1       -0.0158
     29 C         143.5262  133.3386  156.4307 C.2     1  UNL1        0.0678
     30 C         143.4582  134.6712  155.7455 C.2     1  UNL1        0.0123
     31 C         142.5095  134.8792  154.6024 C.2     1  UNL1        0.1019
     32 C         144.4749  133.1305  157.5739 C.3     1  UNL1        0.4183
     33 F         145.4235  132.9225  158.7170 F       1  UNL1       -0.1659
     34 F         145.2441  132.1370  156.7547 F       1  UNL1       -0.1659
     35 F         143.7057  134.1241  158.3930 F       1  UNL1       -0.1659
@<TRIPOS>BOND
     1    18    19    1
     2    19    17    1
     3    17    15    1
     4    15    16    2
     5     9    15    1
     6     9    10    1
     7    10    11    1
     8    11    12    1
     9    12     5    1
    10     5     6    1
    11     6     7    1
    12     7     1    1
    13     1     2   am
    14     2     3    2
    15     2    20    1
    16    20    21    1
    17    21    23    1
    18    23    24    2
    19    24    25    1
    20    25    26    2
    21    26    27    1
    22    27    28    1
    23    28    29    2
    24    29    32    1
    25    32    33    1
    26    32    34    1
    27    32    35    1
    28    29    30    1
    29    30    31    2
    30     7     8    1
    31    12    13    1
    32    13    14    1
    33    14     9    1
    34     8     5    1
    35    31    23    1
    36    31    26    1
    37     1     4    1
    38    21    22    1
@<TRIPOS>MOLECULE
*****
 35 38 0 0 0
SMALL
GASTEIGER

@<TRIPOS>ATOM
      1 N         137.6861  139.8237  160.2312 N.am    1  UNL1       -0.2999
      2 C         138.6910  140.2845  159.2174 C.2     1  UNL1        0.2701
      3 O         140.0150  140.8276  159.6669 O.2     1  UNL1       -0.2706
      4 H         136.8172  139.4672  159.9361 H       1  UNL1        0.1496
      5 N         138.4567  140.0222  163.7640 N.3     1  UNL1       -0.2711
      6 C         138.7684  139.0519  162.6634 C.3     1  UNL1        0.0933
      7 C         138.0053  139.9059  161.6945 C.3     1  UNL1        0.1035
      8 C         137.6937  140.8761  162.7952 C.3     1  UNL1        0.0933
      9 C         139.4142  140.2690  168.1541 C.3     1  UNL1        0.0992
     10 C         140.0805  141.2027  167.1875 C.3     1  UNL1        0.0125
     11 C         139.7613  141.1204  165.7241 C.3     1  UNL1        0.0165
     12 C         138.7759  140.1045  165.2274 C.3     1  UNL1        0.0576
     13 C         138.1096  139.1708  166.1940 C.3     1  UNL1        0.0165
     14 C         138.4288  139.2531  167.6572 C.3     1  UNL1        0.0125
     15 C         139.7333  140.3512  169.6174 C.2     1  UNL1        0.3164
     16 O         139.1343  141.4414  170.4556 O.2     1  UNL1       -0.2501
     17 O         140.6515  139.3431  170.2425 O.3     1  UNL1       -0.4485
     18 C         142.7511  140.7716  169.6940 C.3     1  UNL1        0.0513
     19 C         142.1333  139.4479  170.0351 C.3     1  UNL1        0.2086
     20 C         138.3718  140.2023  157.7541 C.3     1  UNL1        0.2850
     21 N         139.0242  139.1542  156.9019 N.pl3   1  UNL1       -0.2091
     22 H         138.5180  138.3541  156.6319 H       1  UNL1        0.2928
     23 C         140.4477  139.3252  156.4611 C.2     1  UNL1        0.3493
     24 N         141.1261  140.6280  156.1571 N.2     1  UNL1        0.0798
     25 N         142.5404  140.3313  155.7550 N.2     1  UNL1       -0.0381
     26 C         142.7361  138.8452  155.8104 C.2     1  UNL1        0.1169
     27 C         143.9249  137.9778  155.5200 C.3     1  UNL1        0.0759
     28 C         143.8204  136.4887  155.6659 C.2     1  UNL1       -0.0158
     29 C         142.5270  135.8668  156.1023 C.2     1  UNL1        0.0678
     30 C         141.3382  136.7341  156.3928 C.2     1  UNL1        0.0123
     31 C         141.4427  138.2233  156.2468 C.2     1  UNL1        0.1019
     32 C         142.4224  134.3775  156.2482 C.3     1  UNL1        0.4183
     33 F         142.3180  132.8883  156.3942 F       1  UNL1       -0.1659
     34 F         141.1022  134.4004  155.5366 F       1  UNL1       -0.1659
     35 F         143.7427  134.3546  156.9599 F       1  UNL1       -0.1659
@<TRIPOS>BOND
     1    18    19    1
     2    19    17    1
     3    17    15    1
     4    15    16    2
     5     9    15    1
     6     9    10    1
     7    10    11    1
     8    11    12    1
     9    12     5    1
    10     5     6    1
    11     6     7    1
    12     7     1    1
    13     1     2   am
    14     2     3    2
    15     2    20    1
    16    20    21    1
    17    21    23    1
    18    23    24    2
    19    24    25    1
    20    25    26    2
    21    26    27    1
    22    27    28    1
    23    28    29    2
    24    29    32    1
    25    32    33    1
    26    32    34    1
    27    32    35    1
    28    29    30    1
    29    30    31    2
    30     7     8    1
    31    12    13    1
    32    13    14    1
    33    14     9    1
    34     8     5    1
    35    31    23    1
    36    31    26    1
    37     1     4    1
    38    21    22    1
@<TRIPOS>MOLECULE
*****
 35 38 0 0 0
SMALL
GASTEIGER

@<TRIPOS>ATOM
      1 N         144.1183  140.9120  161.5054 N.am    1  UNL1       -0.2999
      2 C         143.6968  141.6948  160.2973 C.2     1  UNL1        0.2701
      3 O         142.7471  142.8466  160.4437 O.2     1  UNL1       -0.2706
      4 H         144.7417  140.1561  161.4093 H       1  UNL1        0.1496
      5 N         142.8429  141.8028  164.7756 N.3     1  UNL1       -0.2711
      6 C         142.7096  140.6118  163.8735 C.3     1  UNL1        0.0933
      7 C         143.5900  141.2810  162.8599 C.3     1  UNL1        0.1035
      8 C         143.7233  142.4719  163.7621 C.3     1  UNL1        0.0933
      9 C         141.2580  142.9098  168.8392 C.3     1  UNL1        0.0992
     10 C         142.6920  142.4997  168.6796 C.3     1  UNL1        0.0125
     11 C         143.2203  142.1307  167.3251 C.3     1  UNL1        0.0165
     12 C         142.3146  142.1718  166.1301 C.3     1  UNL1        0.0576
     13 C         140.8806  142.5820  166.2897 C.3     1  UNL1        0.0165
     14 C         140.3524  142.9510  167.6441 C.3     1  UNL1        0.0125
     15 C         140.7297  143.2789  170.1936 C.2     1  UNL1        0.3164
     16 O         139.9523  144.5488  170.3751 O.2     1  UNL1       -0.2501
     17 O         140.9787  142.3779  171.3668 O.3     1  UNL1       -0.4485
     18 C         139.6775  140.3806  170.3334 C.3     1  UNL1        0.0513
     19 C         140.7549  140.9002  171.2385 C.3     1  UNL1        0.2086
     20 C         144.2251  141.3258  158.9428 C.3     1  UNL1        0.2850
     21 N         143.5414  140.2624  158.1353 N.pl3   1  UNL1       -0.2091
     22 H         144.0734  139.6475  157.5802 H       1  UNL1        0.2928
     23 C         142.0472  140.1360  158.1735 C.2     1  UNL1        0.3493
     24 N         141.0908  140.6692  157.1483 N.2     1  UNL1        0.0798
     25 N         139.6997  140.3170  157.5849 N.2     1  UNL1       -0.0381
     26 C         139.7963  139.5661  158.8798 C.2     1  UNL1        0.1169
     27 C         138.7506  138.9697  159.7747 C.3     1  UNL1        0.0759
     28 C         139.1558  138.2615  161.0333 C.2     1  UNL1       -0.0158
     29 C         140.6067  138.1497  161.3971 C.2     1  UNL1        0.0678
     30 C         141.6524  138.7460  160.5022 C.2     1  UNL1        0.0123
     31 C         141.2472  139.4542  159.2436 C.2     1  UNL1        0.1019
     32 C         141.0119  137.4414  162.6558 C.3     1  UNL1        0.4183
     33 F         141.4171  136.7332  163.9144 F       1  UNL1       -0.1659
     34 F         139.5681  137.2135  162.9924 F       1  UNL1       -0.1659
     35 F         142.4557  137.6694  162.3192 F       1  UNL1       -0.1659
@<TRIPOS>BOND
     1    18    19    1
     2    19    17    1
     3    17    15    1
     4    15    16    2
     5     9    15    1
     6     9    10    1
     7    10    11    1
     8    11    12    1
     9    12     5    1
    10     5     6    1
    11     6     7    1
    12     7     1    1
    13     1     2   am
    14     2     3    2
    15     2    20    1
    16    20    21    1
    17    21    23    1
    18    23    24    2
    19    24    25    1
    20    25    26    2
    21    26    27    1
    22    27    28    1
    23    28    29    2
    24    29    32    1
    25    32    33    1
    26    32    34    1
    27    32    35    1
    28    29    30    1
    29    30    31    2
    30     7     8    1
    31    12    13    1
    32    13    14    1
    33    14     9    1
    34     8     5    1
    35    31    23    1
    36    31    26    1
    37     1     4    1
    38    21    22    1
