@<TRIPOS>MOLECULE
*****
 35 39 0 0 0
SMALL
GASTEIGER

@<TRIPOS>ATOM
      1 C         139.7752  139.0632  164.2857 C.2     1  UNL1        0.2264
      2 O         138.5130  138.3335  164.6387 O.2     1  UNL1       -0.2748
      3 N         140.2447  139.1038  162.8616 N.am    1  UNL1       -0.2767
      4 C         139.4521  138.4149  161.7906 C.3     1  UNL1        0.1107
      5 C         139.9216  138.4555  160.3665 C.3     1  UNL1        0.0943
      6 N         141.1838  139.1852  160.0135 N.3     1  UNL1       -0.2619
      7 C         141.9764  139.8741  161.0846 C.3     1  UNL1        0.0943
      8 C         141.5068  139.8335  162.5086 C.3     1  UNL1        0.1107
      9 C         140.5678  139.7521  165.3566 C.3     1  UNL1        0.0940
     10 C         140.1184  141.0826  165.8836 C.3     1  UNL1        0.0536
     11 C         138.9651  144.3616  163.0256 C.ar    1  UNL1        0.1387
     12 C         137.9020  143.5420  163.6951 C.ar    1  UNL1        0.0366
     13 C         138.2865  142.4490  164.6478 C.ar    1  UNL1       -0.0008
     14 C         139.7340  142.1756  164.9309 C.ar    1  UNL1       -0.0177
     15 C         140.7969  142.9953  164.2614 C.ar    1  UNL1       -0.0008
     16 C         140.4125  144.0882  163.3088 C.ar    1  UNL1        0.0366
     17 C         139.6212  146.4099  161.5681 C.3     1  UNL1        0.2525
     18 O         138.5807  145.4546  162.0729 O.3     1  UNL1       -0.4714
     19 C         140.0535  141.3202  167.3633 C.ar    1  UNL1       -0.0179
     20 C         139.5801  140.2297  168.2779 C.ar    1  UNL1       -0.0039
     21 C         139.5152  140.4672  169.7575 C.ar    1  UNL1       -0.0003
     22 C         139.9236  141.7953  170.3225 C.ar    1  UNL1       -0.0000
     23 C         140.3970  142.8859  169.4079 C.ar    1  UNL1       -0.0003
     24 C         140.4619  142.6483  167.9283 C.ar    1  UNL1       -0.0039
     25 C         141.6533  139.2258  158.5895 C.3     1  UNL1        0.1588
     26 C         141.8971  137.9476  157.8433 C.ar    1  UNL1        0.2221
     27 N         141.0755  137.4213  156.7040 N.ar    1  UNL1       -0.2109
     28 C         141.6759  136.1197  156.2620 C.ar    1  UNL1        0.1186
     29 C         141.2906  135.1519  155.1827 C.ar    1  UNL1        0.0220
     30 C         142.0981  133.9059  154.9696 C.ar    1  UNL1       -0.0025
     31 C         143.2907  133.6277  155.8357 C.ar    1  UNL1       -0.0187
     32 C         144.0982  132.3816  155.6226 C.3     1  UNL1        0.0311
     33 C         143.6760  134.5956  156.9150 C.ar    1  UNL1        0.0349
     34 C         142.8685  135.8416  157.1281 C.ar    1  UNL1        0.1641
     35 O         143.0052  136.9713  158.1054 O.2     1  UNL1       -0.4370
@<TRIPOS>BOND
     1    17    18    1
     2    18    11    1
     3    11    12   ar
     4    12    13   ar
     5    13    14   ar
     6    14    10    1
     7    10     9    1
     8     9     1    1
     9     1     2    2
    10     1     3   am
    11     3     4    1
    12     4     5    1
    13     5     6    1
    14     6    25    1
    15    25    26    1
    16    26    27   ar
    17    27    28   ar
    18    28    29   ar
    19    29    30   ar
    20    30    31   ar
    21    31    32    1
    22    31    33   ar
    23    33    34   ar
    24    34    35   ar
    25     6     7    1
    26     7     8    1
    27    10    19    1
    28    19    20   ar
    29    20    21   ar
    30    21    22   ar
    31    22    23   ar
    32    23    24   ar
    33    14    15   ar
    34    15    16   ar
    35    16    11   ar
    36     8     3    1
    37    24    19   ar
    38    35    26   ar
    39    34    28   ar
@<TRIPOS>MOLECULE
*****
 35 39 0 0 0
SMALL
GASTEIGER

@<TRIPOS>ATOM
      1 C         139.4664  139.0550  164.9676 C.2     1  UNL1        0.2264
      2 O         138.4118  138.2630  165.6821 O.2     1  UNL1       -0.2748
      3 N         139.5458  139.0186  163.4701 N.am    1  UNL1       -0.2767
      4 C         138.5706  138.1904  162.6872 C.3     1  UNL1        0.1107
      5 C         138.6500  138.1541  161.1897 C.3     1  UNL1        0.0943
      6 N         139.7046  138.9460  160.4751 N.3     1  UNL1       -0.2619
      7 C         140.6798  139.7743  161.2581 C.3     1  UNL1        0.0943
      8 C         140.6004  139.8106  162.7555 C.3     1  UNL1        0.1107
      9 C         140.4416  139.8832  165.7504 C.3     1  UNL1        0.0940
     10 C         140.0636  141.2644  166.1969 C.3     1  UNL1        0.0536
     11 C         138.9774  144.3950  163.1523 C.ar    1  UNL1        0.1387
     12 C         140.4081  144.2157  163.5661 C.ar    1  UNL1        0.0366
     13 C         140.7701  143.1722  164.5810 C.ar    1  UNL1       -0.0008
     14 C         139.7015  142.3079  165.1821 C.ar    1  UNL1       -0.0177
     15 C         138.2710  142.4872  164.7682 C.ar    1  UNL1       -0.0008
     16 C         137.9089  143.5307  163.7533 C.ar    1  UNL1        0.0366
     17 C         139.6612  146.3874  161.6315 C.3     1  UNL1        0.2525
     18 O         138.6154  145.4385  162.1374 O.3     1  UNL1       -0.4714
     19 C         140.0476  141.6021  167.6584 C.ar    1  UNL1       -0.0179
     20 C         140.4466  142.9740  168.1155 C.ar    1  UNL1       -0.0039
     21 C         140.4306  143.3117  169.5769 C.ar    1  UNL1       -0.0003
     22 C         140.0157  142.2777  170.5811 C.ar    1  UNL1       -0.0000
     23 C         139.6168  140.9058  170.1240 C.ar    1  UNL1       -0.0003
     24 C         139.6327  140.5681  168.6626 C.ar    1  UNL1       -0.0039
     25 C         139.7840  138.9097  158.9777 C.3     1  UNL1        0.1588
     26 C         139.1787  140.0174  158.1674 C.ar    1  UNL1        0.2221
     27 N         137.8267  139.9975  157.5180 N.ar    1  UNL1       -0.2109
     28 C         137.6315  141.3073  156.8135 C.ar    1  UNL1        0.1186
     29 C         136.4916  141.8518  156.0048 C.ar    1  UNL1        0.0220
     30 C         136.5830  143.2259  155.4102 C.ar    1  UNL1       -0.0025
     31 C         137.8143  144.0554  155.6243 C.ar    1  UNL1       -0.0187
     32 C         137.9056  145.4295  155.0296 C.3     1  UNL1        0.0311
     33 C         138.9541  143.5109  156.4330 C.ar    1  UNL1        0.0349
     34 C         138.8627  142.1368  157.0276 C.ar    1  UNL1        0.1641
     35 O         139.8190  141.3396  157.8644 O.2     1  UNL1       -0.4370
@<TRIPOS>BOND
     1    17    18    1
     2    18    11    1
     3    11    12   ar
     4    12    13   ar
     5    13    14   ar
     6    14    10    1
     7    10     9    1
     8     9     1    1
     9     1     2    2
    10     1     3   am
    11     3     4    1
    12     4     5    1
    13     5     6    1
    14     6    25    1
    15    25    26    1
    16    26    27   ar
    17    27    28   ar
    18    28    29   ar
    19    29    30   ar
    20    30    31   ar
    21    31    32    1
    22    31    33   ar
    23    33    34   ar
    24    34    35   ar
    25     6     7    1
    26     7     8    1
    27    10    19    1
    28    19    20   ar
    29    20    21   ar
    30    21    22   ar
    31    22    23   ar
    32    23    24   ar
    33    14    15   ar
    34    15    16   ar
    35    16    11   ar
    36     8     3    1
    37    24    19   ar
    38    35    26   ar
    39    34    28   ar
@<TRIPOS>MOLECULE
*****
 35 39 0 0 0
SMALL
GASTEIGER

@<TRIPOS>ATOM
      1 C         140.9486  139.6004  165.5999 C.2     1  UNL1        0.2264
      2 O         142.1429  138.8517  166.1129 O.2     1  UNL1       -0.2748
      3 N         140.4727  139.3808  164.1944 N.am    1  UNL1       -0.2767
      4 C         141.1911  138.4126  163.3020 C.3     1  UNL1        0.1107
      5 C         140.7152  138.1930  161.8965 C.3     1  UNL1        0.0943
      6 N         139.5209  138.9417  161.3835 N.3     1  UNL1       -0.2619
      7 C         138.8025  139.9100  162.2760 C.3     1  UNL1        0.0943
      8 C         139.2785  140.1295  163.6814 C.3     1  UNL1        0.1107
      9 C         140.2303  140.5686  166.4923 C.3     1  UNL1        0.0940
     10 C         140.7674  141.9566  166.6794 C.3     1  UNL1        0.0536
     11 C         140.3534  144.9925  163.3837 C.ar    1  UNL1        0.1387
     12 C         139.2072  144.7379  164.3172 C.ar    1  UNL1        0.0366
     13 C         139.3452  143.7259  165.4157 C.ar    1  UNL1       -0.0008
     14 C         140.6294  142.9685  165.5808 C.ar    1  UNL1       -0.0177
     15 C         141.7756  143.2232  164.6474 C.ar    1  UNL1       -0.0008
     16 C         141.6376  144.2352  163.5488 C.ar    1  UNL1        0.0366
     17 C         140.2119  145.5604  160.8524 C.3     1  UNL1        0.2525
     18 O         140.2154  146.0045  162.2851 O.3     1  UNL1       -0.4714
     19 C         141.4426  142.3326  167.9650 C.ar    1  UNL1       -0.0179
     20 C         142.8603  141.9130  168.2183 C.ar    1  UNL1       -0.0039
     21 C         143.5355  142.2889  169.5038 C.ar    1  UNL1       -0.0003
     22 C         142.7930  143.0845  170.5361 C.ar    1  UNL1       -0.0000
     23 C         141.3753  143.5041  170.2829 C.ar    1  UNL1       -0.0003
     24 C         140.7001  143.1282  168.9973 C.ar    1  UNL1       -0.0039
     25 C         139.0450  138.7222  159.9781 C.3     1  UNL1        0.1588
     26 C         138.8802  139.8898  159.0510 C.ar    1  UNL1        0.2221
     27 N         139.8064  141.0644  158.9392 N.ar    1  UNL1       -0.2109
     28 C         139.2590  141.9884  157.8920 C.ar    1  UNL1        0.1186
     29 C         139.7486  143.3014  157.3569 C.ar    1  UNL1        0.0220
     30 C         138.9736  144.0108  156.2864 C.ar    1  UNL1       -0.0025
     31 C         137.7090  143.4073  155.7510 C.ar    1  UNL1       -0.0187
     32 C         136.9340  144.1168  154.6804 C.3     1  UNL1        0.0311
     33 C         137.2194  142.0944  156.2862 C.ar    1  UNL1        0.0349
     34 C         137.9944  141.3849  157.3567 C.ar    1  UNL1        0.1641
     35 O         137.7603  140.0879  158.0729 O.2     1  UNL1       -0.4370
@<TRIPOS>BOND
     1    17    18    1
     2    18    11    1
     3    11    12   ar
     4    12    13   ar
     5    13    14   ar
     6    14    10    1
     7    10     9    1
     8     9     1    1
     9     1     2    2
    10     1     3   am
    11     3     4    1
    12     4     5    1
    13     5     6    1
    14     6    25    1
    15    25    26    1
    16    26    27   ar
    17    27    28   ar
    18    28    29   ar
    19    29    30   ar
    20    30    31   ar
    21    31    32    1
    22    31    33   ar
    23    33    34   ar
    24    34    35   ar
    25     6     7    1
    26     7     8    1
    27    10    19    1
    28    19    20   ar
    29    20    21   ar
    30    21    22   ar
    31    22    23   ar
    32    23    24   ar
    33    14    15   ar
    34    15    16   ar
    35    16    11   ar
    36     8     3    1
    37    24    19   ar
    38    35    26   ar
    39    34    28   ar
@<TRIPOS>MOLECULE
*****
 35 39 0 0 0
SMALL
GASTEIGER

@<TRIPOS>ATOM
      1 C         140.8904  138.3930  163.6598 C.2     1  UNL1        0.2264
      2 O         139.4678  138.6615  164.0524 O.2     1  UNL1       -0.2748
      3 N         141.2648  138.3074  162.2097 N.am    1  UNL1       -0.2767
      4 C         140.2167  138.4903  161.1524 C.3     1  UNL1        0.1107
      5 C         140.5911  138.4047  159.7024 C.3     1  UNL1        0.0943
      6 N         142.0137  138.1362  159.3097 N.3     1  UNL1       -0.2619
      7 C         143.0618  137.9533  160.3671 C.3     1  UNL1        0.0943
      8 C         142.6874  138.0389  161.8170 C.3     1  UNL1        0.1107
      9 C         141.9385  138.2101  164.7171 C.3     1  UNL1        0.0940
     10 C         142.3986  139.3849  165.5282 C.3     1  UNL1        0.0536
     11 C         140.7346  140.0603  169.6544 C.ar    1  UNL1        0.1387
     12 C         142.1336  139.5464  169.4847 C.ar    1  UNL1        0.0366
     13 C         142.6883  139.3213  168.1093 C.ar    1  UNL1       -0.0008
     14 C         141.8439  139.6101  166.9036 C.ar    1  UNL1       -0.0177
     15 C         140.4450  140.1239  167.0733 C.ar    1  UNL1       -0.0008
     16 C         139.8903  140.3491  168.4487 C.ar    1  UNL1        0.0366
     17 C         140.3929  141.6011  171.7182 C.3     1  UNL1        0.2525
     18 O         140.1800  140.2854  171.0298 O.3     1  UNL1       -0.4714
     19 C         143.4133  140.3347  164.9640 C.ar    1  UNL1       -0.0179
     20 C         143.3004  141.8045  165.2414 C.ar    1  UNL1       -0.0039
     21 C         144.3151  142.7543  164.6772 C.ar    1  UNL1       -0.0003
     22 C         145.4426  142.2343  163.8357 C.ar    1  UNL1       -0.0000
     23 C         145.5554  140.7645  163.5583 C.ar    1  UNL1       -0.0003
     24 C         144.5408  139.8147  164.1224 C.ar    1  UNL1       -0.0039
     25 C         142.3881  138.0507  157.8597 C.3     1  UNL1        0.1588
     26 C         142.5388  136.7111  157.2019 C.ar    1  UNL1        0.2221
     27 N         141.6305  136.1351  156.1563 N.ar    1  UNL1       -0.2109
     28 C         142.1547  134.7803  155.7822 C.ar    1  UNL1        0.1186
     29 C         141.6690  133.7509  154.8053 C.ar    1  UNL1        0.0220
     30 C         142.4157  132.4602  154.6427 C.ar    1  UNL1       -0.0025
     31 C         143.6479  132.1989  155.4572 C.ar    1  UNL1       -0.0187
     32 C         144.3946  130.9080  155.2946 C.3     1  UNL1        0.0311
     33 C         144.1335  133.2283  156.4341 C.ar    1  UNL1        0.0349
     34 C         143.3869  134.5190  156.5966 C.ar    1  UNL1        0.1641
     35 O         143.6243  135.7123  157.4740 O.2     1  UNL1       -0.4370
@<TRIPOS>BOND
     1    17    18    1
     2    18    11    1
     3    11    12   ar
     4    12    13   ar
     5    13    14   ar
     6    14    10    1
     7    10     9    1
     8     9     1    1
     9     1     2    2
    10     1     3   am
    11     3     4    1
    12     4     5    1
    13     5     6    1
    14     6    25    1
    15    25    26    1
    16    26    27   ar
    17    27    28   ar
    18    28    29   ar
    19    29    30   ar
    20    30    31   ar
    21    31    32    1
    22    31    33   ar
    23    33    34   ar
    24    34    35   ar
    25     6     7    1
    26     7     8    1
    27    10    19    1
    28    19    20   ar
    29    20    21   ar
    30    21    22   ar
    31    22    23   ar
    32    23    24   ar
    33    14    15   ar
    34    15    16   ar
    35    16    11   ar
    36     8     3    1
    37    24    19   ar
    38    35    26   ar
    39    34    28   ar
@<TRIPOS>MOLECULE
*****
 35 39 0 0 0
SMALL
GASTEIGER

@<TRIPOS>ATOM
      1 C         138.7959  138.7984  164.8656 C.2     1  UNL1        0.2264
      2 O         138.8320  137.4090  165.4297 O.2     1  UNL1       -0.2748
      3 N         138.8383  139.0062  163.3806 N.am    1  UNL1       -0.2767
      4 C         138.9167  137.8247  162.4599 C.3     1  UNL1        0.1107
      5 C         138.9591  138.0326  160.9749 C.3     1  UNL1        0.0943
      6 N         138.9230  139.4220  160.4107 N.3     1  UNL1       -0.2619
      7 C         138.8445  140.6035  161.3316 C.3     1  UNL1        0.0943
      8 C         138.8022  140.3956  162.8165 C.3     1  UNL1        0.1107
      9 C         138.7175  139.9799  165.7863 C.3     1  UNL1        0.0940
     10 C         139.9687  140.5422  166.3931 C.3     1  UNL1        0.0536
     11 C         143.8204  140.4834  164.0671 C.ar    1  UNL1        0.1387
     12 C         142.8109  141.5648  163.8190 C.ar    1  UNL1        0.0366
     13 C         141.5270  141.5844  164.5943 C.ar    1  UNL1       -0.0008
     14 C         141.2526  140.5226  165.6177 C.ar    1  UNL1       -0.0177
     15 C         142.2621  139.4413  165.8658 C.ar    1  UNL1       -0.0008
     16 C         143.5460  139.4217  165.0904 C.ar    1  UNL1        0.0366
     17 C         146.0235  141.6486  163.3329 C.3     1  UNL1        0.2525
     18 O         145.1044  140.4638  163.2917 O.3     1  UNL1       -0.4714
     19 C         139.9360  141.1241  167.7753 C.ar    1  UNL1       -0.0179
     20 C         139.4057  140.3112  168.9189 C.ar    1  UNL1       -0.0039
     21 C         139.3731  140.8931  170.3011 C.ar    1  UNL1       -0.0003
     22 C         139.8707  142.2879  170.5395 C.ar    1  UNL1       -0.0000
     23 C         140.4010  143.1008  169.3959 C.ar    1  UNL1       -0.0003
     24 C         140.4336  142.5189  168.0137 C.ar    1  UNL1       -0.0039
     25 C         138.9653  139.6299  158.9259 C.3     1  UNL1        0.1588
     26 C         139.7959  138.7247  158.0652 C.ar    1  UNL1        0.2221
     27 N         141.2758  138.5101  158.1824 N.ar    1  UNL1       -0.2109
     28 C         141.6870  137.5279  157.1258 C.ar    1  UNL1        0.1186
     29 C         143.0191  136.9402  156.7656 C.ar    1  UNL1        0.0220
     30 C         143.1255  135.9600  155.6351 C.ar    1  UNL1       -0.0025
     31 C         141.8996  135.5676  154.8649 C.ar    1  UNL1       -0.0187
     32 C         142.0060  134.5874  153.7344 C.3     1  UNL1        0.0311
     33 C         140.5674  136.1553  155.2252 C.ar    1  UNL1        0.0349
     34 C         140.4611  137.1354  156.3556 C.ar    1  UNL1        0.1641
     35 O         139.2924  137.8751  156.9362 O.2     1  UNL1       -0.4370
@<TRIPOS>BOND
     1    17    18    1
     2    18    11    1
     3    11    12   ar
     4    12    13   ar
     5    13    14   ar
     6    14    10    1
     7    10     9    1
     8     9     1    1
     9     1     2    2
    10     1     3   am
    11     3     4    1
    12     4     5    1
    13     5     6    1
    14     6    25    1
    15    25    26    1
    16    26    27   ar
    17    27    28   ar
    18    28    29   ar
    19    29    30   ar
    20    30    31   ar
    21    31    32    1
    22    31    33   ar
    23    33    34   ar
    24    34    35   ar
    25     6     7    1
    26     7     8    1
    27    10    19    1
    28    19    20   ar
    29    20    21   ar
    30    21    22   ar
    31    22    23   ar
    32    23    24   ar
    33    14    15   ar
    34    15    16   ar
    35    16    11   ar
    36     8     3    1
    37    24    19   ar
    38    35    26   ar
    39    34    28   ar
@<TRIPOS>MOLECULE
*****
 35 39 0 0 0
SMALL
GASTEIGER

@<TRIPOS>ATOM
      1 C         141.8081  139.5578  165.4340 C.2     1  UNL1        0.2264
      2 O         142.8008  138.8667  166.3211 O.2     1  UNL1       -0.2748
      3 N         141.8584  139.3518  163.9490 N.am    1  UNL1       -0.2767
      4 C         142.9013  138.4546  163.3512 C.3     1  UNL1        0.1107
      5 C         142.9516  138.2485  161.8663 C.3     1  UNL1        0.0943
      6 N         141.9590  138.9396  160.9791 N.3     1  UNL1       -0.2619
      7 C         140.9161  139.8368  161.5770 C.3     1  UNL1        0.0943
      8 C         140.8658  140.0429  163.0619 C.3     1  UNL1        0.1107
      9 C         140.7652  140.4550  166.0317 C.3     1  UNL1        0.0940
     10 C         141.0944  141.8854  166.3411 C.3     1  UNL1        0.0536
     11 C         140.5324  145.0545  163.1961 C.ar    1  UNL1        0.1387
     12 C         141.8950  144.4789  163.4458 C.ar    1  UNL1        0.0366
     13 C         142.0823  143.4226  164.4941 C.ar    1  UNL1       -0.0008
     14 C         140.9071  142.9417  165.2928 C.ar    1  UNL1       -0.0177
     15 C         139.5446  143.5173  165.0430 C.ar    1  UNL1       -0.0008
     16 C         139.3573  144.5736  163.9947 C.ar    1  UNL1        0.0366
     17 C         140.1327  145.7172  160.7159 C.3     1  UNL1        0.2525
     18 O         140.3451  146.1108  162.1478 O.3     1  UNL1       -0.4714
     19 C         141.6109  142.2594  167.6988 C.ar    1  UNL1       -0.0179
     20 C         140.6996  142.9155  168.6934 C.ar    1  UNL1       -0.0039
     21 C         141.2160  143.2895  170.0510 C.ar    1  UNL1       -0.0003
     22 C         142.6438  143.0075  170.4142 C.ar    1  UNL1       -0.0000
     23 C         143.5551  142.3514  169.4197 C.ar    1  UNL1       -0.0003
     24 C         143.0387  141.9774  168.0620 C.ar    1  UNL1       -0.0039
     25 C         142.0093  138.7336  159.4942 C.3     1  UNL1        0.1588
     26 C         143.0113  139.4825  158.6666 C.ar    1  UNL1        0.2221
     27 N         143.6438  140.7953  159.0224 N.ar    1  UNL1       -0.2109
     28 C         144.5802  141.1743  157.9135 C.ar    1  UNL1        0.1186
     29 C         145.4749  142.3622  157.7174 C.ar    1  UNL1        0.0220
     30 C         146.3157  142.4715  156.4801 C.ar    1  UNL1       -0.0025
     31 C         146.2619  141.3930  155.4389 C.ar    1  UNL1       -0.0187
     32 C         147.1028  141.5024  154.2016 C.3     1  UNL1        0.0311
     33 C         145.3672  140.2052  155.6351 C.ar    1  UNL1        0.0349
     34 C         144.5264  140.0958  156.8724 C.ar    1  UNL1        0.1641
     35 O         143.5567  139.0503  157.3378 O.2     1  UNL1       -0.4370
@<TRIPOS>BOND
     1    17    18    1
     2    18    11    1
     3    11    12   ar
     4    12    13   ar
     5    13    14   ar
     6    14    10    1
     7    10     9    1
     8     9     1    1
     9     1     2    2
    10     1     3   am
    11     3     4    1
    12     4     5    1
    13     5     6    1
    14     6    25    1
    15    25    26    1
    16    26    27   ar
    17    27    28   ar
    18    28    29   ar
    19    29    30   ar
    20    30    31   ar
    21    31    32    1
    22    31    33   ar
    23    33    34   ar
    24    34    35   ar
    25     6     7    1
    26     7     8    1
    27    10    19    1
    28    19    20   ar
    29    20    21   ar
    30    21    22   ar
    31    22    23   ar
    32    23    24   ar
    33    14    15   ar
    34    15    16   ar
    35    16    11   ar
    36     8     3    1
    37    24    19   ar
    38    35    26   ar
    39    34    28   ar
@<TRIPOS>MOLECULE
*****
 35 39 0 0 0
SMALL
GASTEIGER

@<TRIPOS>ATOM
      1 C         144.2323  140.2048  162.0001 C.2     1  UNL1        0.2264
      2 O         144.8852  141.5529  162.0789 O.2     1  UNL1       -0.2748
      3 N         143.8324  139.6419  160.6684 N.am    1  UNL1       -0.2767
      4 C         144.0854  140.4271  159.4157 C.3     1  UNL1        0.1107
      5 C         143.6855  139.8641  158.0840 C.3     1  UNL1        0.0943
      6 N         143.0325  138.5160  158.0052 N.3     1  UNL1       -0.2619
      7 C         142.7795  137.7308  159.2580 C.3     1  UNL1        0.0943
      8 C         143.1794  138.2937  160.5896 C.3     1  UNL1        0.1107
      9 C         143.9793  139.4196  163.2528 C.3     1  UNL1        0.0940
     10 C         142.7660  139.7078  164.0864 C.3     1  UNL1        0.0536
     11 C         143.1655  142.0548  167.9050 C.ar    1  UNL1        0.1387
     12 C         142.6518  140.6459  167.9409 C.ar    1  UNL1        0.0366
     13 C         142.5187  139.8636  166.6680 C.ar    1  UNL1       -0.0008
     14 C         142.8992  140.4902  165.3593 C.ar    1  UNL1       -0.0177
     15 C         143.4128  141.8990  165.3235 C.ar    1  UNL1       -0.0008
     16 C         143.5460  142.6813  166.5963 C.ar    1  UNL1        0.0366
     17 C         142.2017  142.7984  170.2003 C.3     1  UNL1        0.2525
     18 O         143.2986  142.8372  169.1779 O.3     1  UNL1       -0.4714
     19 C         141.4195  139.2137  163.6471 C.ar    1  UNL1       -0.0179
     20 C         140.9799  137.8231  163.9977 C.ar    1  UNL1       -0.0039
     21 C         139.6335  137.3290  163.5585 C.ar    1  UNL1       -0.0003
     22 C         138.7267  138.2255  162.7686 C.ar    1  UNL1       -0.0000
     23 C         139.1663  139.6161  162.4180 C.ar    1  UNL1       -0.0003
     24 C         140.5127  140.1102  162.8573 C.ar    1  UNL1       -0.0039
     25 C         142.6326  137.9531  156.6736 C.3     1  UNL1        0.1588
     26 C         142.7304  136.4773  156.4232 C.ar    1  UNL1        0.2221
     27 N         141.6063  135.5783  156.0010 N.ar    1  UNL1       -0.2109
     28 C         142.1506  134.1869  155.8680 C.ar    1  UNL1        0.1186
     29 C         141.5050  132.8894  155.4812 C.ar    1  UNL1        0.0220
     30 C         142.3199  131.6309  155.4344 C.ar    1  UNL1       -0.0025
     31 C         143.7803  131.6700  155.7744 C.ar    1  UNL1       -0.0187
     32 C         144.5952  130.4114  155.7276 C.3     1  UNL1        0.0311
     33 C         144.4259  132.9675  156.1612 C.ar    1  UNL1        0.0349
     34 C         143.6110  134.2259  156.2080 C.ar    1  UNL1        0.1641
     35 O         143.9693  135.6415  156.5512 O.2     1  UNL1       -0.4370
@<TRIPOS>BOND
     1    17    18    1
     2    18    11    1
     3    11    12   ar
     4    12    13   ar
     5    13    14   ar
     6    14    10    1
     7    10     9    1
     8     9     1    1
     9     1     2    2
    10     1     3   am
    11     3     4    1
    12     4     5    1
    13     5     6    1
    14     6    25    1
    15    25    26    1
    16    26    27   ar
    17    27    28   ar
    18    28    29   ar
    19    29    30   ar
    20    30    31   ar
    21    31    32    1
    22    31    33   ar
    23    33    34   ar
    24    34    35   ar
    25     6     7    1
    26     7     8    1
    27    10    19    1
    28    19    20   ar
    29    20    21   ar
    30    21    22   ar
    31    22    23   ar
    32    23    24   ar
    33    14    15   ar
    34    15    16   ar
    35    16    11   ar
    36     8     3    1
    37    24    19   ar
    38    35    26   ar
    39    34    28   ar
@<TRIPOS>MOLECULE
*****
 35 39 0 0 0
SMALL
GASTEIGER

@<TRIPOS>ATOM
      1 C         140.5299  138.4224  163.2405 C.2     1  UNL1        0.2264
      2 O         141.3532  137.9779  164.4129 O.2     1  UNL1       -0.2748
      3 N         141.0681  138.2769  161.8479 N.am    1  UNL1       -0.2767
      4 C         142.4295  137.6869  161.6278 C.3     1  UNL1        0.1107
      5 C         142.9677  137.5415  160.2352 C.3     1  UNL1        0.0943
      6 N         142.1445  137.9860  159.0627 N.3     1  UNL1       -0.2619
      7 C         140.7830  138.5760  159.2829 C.3     1  UNL1        0.0943
      8 C         140.2449  138.7214  160.6754 C.3     1  UNL1        0.1107
      9 C         139.1685  139.0123  163.4606 C.3     1  UNL1        0.0940
     10 C         139.0044  140.2080  164.3513 C.3     1  UNL1        0.0536
     11 C         138.7379  144.3279  162.5609 C.ar    1  UNL1        0.1387
     12 C         139.9126  143.4489  162.2484 C.ar    1  UNL1        0.0366
     13 C         140.0014  142.0756  162.8452 C.ar    1  UNL1       -0.0008
     14 C         138.9156  141.5813  163.7545 C.ar    1  UNL1       -0.0177
     15 C         137.7410  142.4603  164.0669 C.ar    1  UNL1       -0.0008
     16 C         137.6521  143.8336  163.4701 C.ar    1  UNL1        0.0366
     17 C         139.8441  146.3030  161.2860 C.3     1  UNL1        0.2525
     18 O         138.6491  145.7012  161.9640 O.3     1  UNL1       -0.4714
     19 C         138.9291  140.0304  165.8389 C.ar    1  UNL1       -0.0179
     20 C         137.9434  139.0667  166.4302 C.ar    1  UNL1       -0.0039
     21 C         137.8680  138.8891  167.9177 C.ar    1  UNL1       -0.0003
     22 C         138.7784  139.6752  168.8139 C.ar    1  UNL1       -0.0000
     23 C         139.7640  140.6389  168.2226 C.ar    1  UNL1       -0.0003
     24 C         139.8394  140.8165  166.7351 C.ar    1  UNL1       -0.0039
     25 C         142.6826  137.8406  157.6702 C.3     1  UNL1        0.1588
     26 C         142.6751  136.4989  156.9995 C.ar    1  UNL1        0.2221
     27 N         141.5421  135.9146  156.2090 N.ar    1  UNL1       -0.2109
     28 C         141.9660  134.5605  155.7226 C.ar    1  UNL1        0.1186
     29 C         141.2620  133.5249  154.8969 C.ar    1  UNL1        0.0220
     30 C         141.9531  132.2366  154.5610 C.ar    1  UNL1       -0.0025
     31 C         143.3481  131.9840  155.0509 C.ar    1  UNL1       -0.0187
     32 C         144.0392  130.6957  154.7150 C.3     1  UNL1        0.0311
     33 C         144.0522  133.0196  155.8766 C.ar    1  UNL1        0.0349
     34 C         143.3611  134.3078  156.2124 C.ar    1  UNL1        0.1641
     35 O         143.7993  135.5058  157.0016 O.2     1  UNL1       -0.4370
@<TRIPOS>BOND
     1    17    18    1
     2    18    11    1
     3    11    12   ar
     4    12    13   ar
     5    13    14   ar
     6    14    10    1
     7    10     9    1
     8     9     1    1
     9     1     2    2
    10     1     3   am
    11     3     4    1
    12     4     5    1
    13     5     6    1
    14     6    25    1
    15    25    26    1
    16    26    27   ar
    17    27    28   ar
    18    28    29   ar
    19    29    30   ar
    20    30    31   ar
    21    31    32    1
    22    31    33   ar
    23    33    34   ar
    24    34    35   ar
    25     6     7    1
    26     7     8    1
    27    10    19    1
    28    19    20   ar
    29    20    21   ar
    30    21    22   ar
    31    22    23   ar
    32    23    24   ar
    33    14    15   ar
    34    15    16   ar
    35    16    11   ar
    36     8     3    1
    37    24    19   ar
    38    35    26   ar
    39    34    28   ar
@<TRIPOS>MOLECULE
*****
 35 39 0 0 0
SMALL
GASTEIGER

@<TRIPOS>ATOM
      1 C         139.4241  139.7871  162.8104 C.2     1  UNL1        0.2264
      2 O         137.9513  139.6572  163.0637 O.2     1  UNL1       -0.2748
      3 N         139.9787  139.4995  161.4466 N.am    1  UNL1       -0.2767
      4 C         139.0607  139.0820  160.3363 C.3     1  UNL1        0.1107
      5 C         139.6153  138.7943  158.9726 C.3     1  UNL1        0.0943
      6 N         141.0881  138.9243  158.7192 N.3     1  UNL1       -0.2619
      7 C         142.0061  139.3418  159.8296 C.3     1  UNL1        0.0943
      8 C         141.4515  139.6294  161.1933 C.3     1  UNL1        0.1107
      9 C         140.3421  140.2046  163.9207 C.3     1  UNL1        0.0940
     10 C         140.0538  141.4513  164.7034 C.3     1  UNL1        0.0536
     11 C         139.9721  141.3159  169.2006 C.ar    1  UNL1        0.1387
     12 C         139.5329  140.1216  168.4062 C.ar    1  UNL1        0.0366
     13 C         139.5602  140.1668  166.9072 C.ar    1  UNL1       -0.0008
     14 C         140.0266  141.4061  166.2025 C.ar    1  UNL1       -0.0177
     15 C         140.4657  142.6003  166.9969 C.ar    1  UNL1       -0.0008
     16 C         140.4385  142.5552  168.4960 C.ar    1  UNL1        0.0366
     17 C         141.2278  141.1686  171.4704 C.3     1  UNL1        0.2525
     18 O         139.9449  141.2707  170.6997 O.3     1  UNL1       -0.4714
     19 C         139.7927  142.7431  163.9871 C.ar    1  UNL1       -0.0179
     20 C         140.9403  143.5605  163.4723 C.ar    1  UNL1       -0.0039
     21 C         140.6792  144.8523  162.7561 C.ar    1  UNL1       -0.0003
     22 C         139.2706  145.3267  162.5545 C.ar    1  UNL1       -0.0000
     23 C         138.1230  144.5093  163.0693 C.ar    1  UNL1       -0.0003
     24 C         138.3841  143.2175  163.7856 C.ar    1  UNL1       -0.0039
     25 C         141.6427  138.6367  157.3556 C.3     1  UNL1        0.1588
     26 C         141.9622  137.2260  156.9580 C.ar    1  UNL1        0.2221
     27 N         143.1344  136.4199  157.4335 N.ar    1  UNL1       -0.2109
     28 C         143.0622  135.0695  156.7846 C.ar    1  UNL1        0.1186
     29 C         143.9473  133.8622  156.8786 C.ar    1  UNL1        0.0220
     30 C         143.6155  132.6263  156.0960 C.ar    1  UNL1       -0.0025
     31 C         142.3986  132.5978  155.2194 C.ar    1  UNL1       -0.0187
     32 C         142.0668  131.3618  154.4368 C.3     1  UNL1        0.0311
     33 C         141.5135  133.8051  155.1254 C.ar    1  UNL1        0.0349
     34 C         141.8453  135.0410  155.9080 C.ar    1  UNL1        0.1641
     35 O         141.1655  136.3738  156.0152 O.2     1  UNL1       -0.4370
@<TRIPOS>BOND
     1    17    18    1
     2    18    11    1
     3    11    12   ar
     4    12    13   ar
     5    13    14   ar
     6    14    10    1
     7    10     9    1
     8     9     1    1
     9     1     2    2
    10     1     3   am
    11     3     4    1
    12     4     5    1
    13     5     6    1
    14     6    25    1
    15    25    26    1
    16    26    27   ar
    17    27    28   ar
    18    28    29   ar
    19    29    30   ar
    20    30    31   ar
    21    31    32    1
    22    31    33   ar
    23    33    34   ar
    24    34    35   ar
    25     6     7    1
    26     7     8    1
    27    10    19    1
    28    19    20   ar
    29    20    21   ar
    30    21    22   ar
    31    22    23   ar
    32    23    24   ar
    33    14    15   ar
    34    15    16   ar
    35    16    11   ar
    36     8     3    1
    37    24    19   ar
    38    35    26   ar
    39    34    28   ar
