@<TRIPOS>MOLECULE
*****
 34 38 0 0 0
SMALL
GASTEIGER

@<TRIPOS>ATOM
      1 N         142.3562  144.1544  162.9407 N.3     1  UNL1       -0.2712
      2 C         141.2588  145.1650  163.0971 C.3     1  UNL1        0.0738
      3 C         139.9478  144.4385  163.0372 C.3     1  UNL1        0.0372
      4 C         138.4593  144.6140  163.0968 C.3     1  UNL1        0.0245
      5 C         137.8265  143.2631  162.9403 C.3     1  UNL1        0.0909
      6 N         138.9240  142.2525  162.7840 N.pl3   1  UNL1       -0.3077
      7 C         140.2350  142.9790  162.8439 C.3     1  UNL1        0.0901
      8 C         141.7235  142.8034  162.7842 C.3     1  UNL1        0.0921
      9 C         138.7424  140.7749  162.6001 C.ar    1  UNL1        0.0478
     10 C         137.6844  140.2594  161.6701 C.ar    1  UNL1        0.0145
     11 C         137.5028  138.7818  161.4862 C.ar    1  UNL1        0.0012
     12 C         138.3791  137.8198  162.2322 C.ar    1  UNL1        0.0039
     13 C         139.4371  138.3354  163.1622 C.ar    1  UNL1        0.0726
     14 C         139.6188  139.8129  163.3462 C.ar    1  UNL1        0.0184
     15 C         140.3135  137.3734  163.9083 C.3     1  UNL1        0.4186
     16 F         141.1898  136.4114  164.6543 F       1  UNL1       -0.1659
     17 F         141.2826  137.3684  162.7634 F       1  UNL1       -0.1659
     18 F         139.3442  137.3784  165.0531 F       1  UNL1       -0.1659
     19 C         143.8280  144.4440  162.9408 C.3     1  UNL1        0.0731
     20 C         144.7400  143.6941  162.0157 C.3     1  UNL1        0.0294
     21 C         144.9901  142.2310  162.2321 C.3     1  UNL1        0.0666
     22 S         145.4325  141.7366  163.5774 S.3     1  UNL1       -0.0756
     23 C         143.5849  142.6698  166.1004 C.3     1  UNL1        0.1340
     24 N         143.6812  141.2799  165.5445 N.ar    1  UNL1       -0.2872
     25 C         144.5304  140.8510  164.3848 C.ar    1  UNL1        0.1933
     26 N         144.3192  139.3809  164.1742 N.ar    1  UNL1       -0.1221
     27 N         143.3394  138.9013  165.2038 N.ar    1  UNL1       -0.1266
     28 C         142.9450  140.0749  166.0507 C.ar    1  UNL1        0.1862
     29 C         141.9834  140.0482  167.2016 C.ar    1  UNL1        0.1362
     30 C         140.5068  139.9925  166.9440 C.ar    1  UNL1        0.1211
     31 N         139.5452  139.9658  168.0950 N.ar    1  UNL1       -0.2390
     32 C         140.0604  139.9948  169.5035 C.ar    1  UNL1        0.1195
     33 C         141.5370  140.0505  169.7610 C.ar    1  UNL1        0.1196
     34 N         142.4986  140.0772  168.6100 N.ar    1  UNL1       -0.2375
@<TRIPOS>BOND
     1    23    24    1
     2    24    25   ar
     3    25    22    1
     4    22    21    1
     5    21    20    1
     6    20    19    1
     7    19     1    1
     8     1     2    1
     9     2     3    1
    10     3     4    1
    11     4     5    1
    12     5     6    1
    13     6     9    1
    14     9    10   ar
    15    10    11   ar
    16    11    12   ar
    17    12    13   ar
    18    13    15    1
    19    15    16    1
    20    15    17    1
    21    15    18    1
    22    13    14   ar
    23     6     7    1
    24     7     8    1
    25    25    26   ar
    26    26    27   ar
    27    27    28   ar
    28    28    29    1
    29    29    30   ar
    30    30    31   ar
    31    31    32   ar
    32    32    33   ar
    33    33    34   ar
    34    28    24   ar
    35    34    29   ar
    36     8     1    1
    37     7     3    1
    38    14     9   ar
@<TRIPOS>MOLECULE
*****
 34 38 0 0 0
SMALL
GASTEIGER

@<TRIPOS>ATOM
      1 N         138.0599  140.5795  162.2623 N.3     1  UNL1       -0.2712
      2 C         137.0667  141.4606  162.9603 C.3     1  UNL1        0.0738
      3 C         137.8227  142.5644  163.6387 C.3     1  UNL1        0.0372
      4 C         137.6761  143.7911  164.4893 C.3     1  UNL1        0.0245
      5 C         139.0459  144.3503  164.7365 C.3     1  UNL1        0.0909
      6 N         140.0391  143.4691  164.0385 N.pl3   1  UNL1       -0.3077
      7 C         139.2831  142.3654  163.3601 C.3     1  UNL1        0.0901
      8 C         139.4297  141.1386  162.5094 C.3     1  UNL1        0.0921
      9 C         141.5270  143.6584  164.0219 C.ar    1  UNL1        0.0478
     10 C         142.1065  145.0400  163.9484 C.ar    1  UNL1        0.0145
     11 C         143.5944  145.2293  163.9318 C.ar    1  UNL1        0.0012
     12 C         144.5028  144.0371  163.9888 C.ar    1  UNL1        0.0039
     13 C         143.9234  142.6554  164.0623 C.ar    1  UNL1        0.0726
     14 C         142.4354  142.4661  164.0789 C.ar    1  UNL1        0.0184
     15 C         144.8318  141.4632  164.1192 C.3     1  UNL1        0.4186
     16 F         145.7402  140.2710  164.1762 F       1  UNL1       -0.1659
     17 F         143.6827  140.5703  163.7557 F       1  UNL1       -0.1659
     18 F         145.9809  142.3562  164.4828 F       1  UNL1       -0.1659
     19 C         137.7396  139.3543  161.4584 C.3     1  UNL1        0.0731
     20 C         138.1379  137.9997  161.9648 C.3     1  UNL1        0.0294
     21 C         138.5757  137.8304  163.3895 C.3     1  UNL1        0.0666
     22 S         140.0344  137.7064  163.7162 S.3     1  UNL1       -0.0756
     23 C         138.3668  139.5988  165.7869 C.3     1  UNL1        0.1340
     24 N         139.8375  139.3094  165.8462 N.ar    1  UNL1       -0.2872
     25 C         140.6039  138.4396  164.8944 C.ar    1  UNL1        0.1933
     26 N         142.0400  138.4317  165.3275 N.ar    1  UNL1       -0.1221
     27 N         142.1611  139.2966  166.5471 N.ar    1  UNL1       -0.1266
     28 C         140.7999  139.8391  166.8676 C.ar    1  UNL1        0.1862
     29 C         140.4606  140.7512  168.0092 C.ar    1  UNL1        0.1362
     30 C         139.6716  140.2324  169.1747 C.ar    1  UNL1        0.1211
     31 N         139.3323  141.1445  170.3162 N.ar    1  UNL1       -0.2390
     32 C         139.7821  142.5753  170.2922 C.ar    1  UNL1        0.1195
     33 C         140.5711  143.0940  169.1267 C.ar    1  UNL1        0.1196
     34 N         140.9104  142.1819  167.9852 N.ar    1  UNL1       -0.2375
@<TRIPOS>BOND
     1    23    24    1
     2    24    25   ar
     3    25    22    1
     4    22    21    1
     5    21    20    1
     6    20    19    1
     7    19     1    1
     8     1     2    1
     9     2     3    1
    10     3     4    1
    11     4     5    1
    12     5     6    1
    13     6     9    1
    14     9    10   ar
    15    10    11   ar
    16    11    12   ar
    17    12    13   ar
    18    13    15    1
    19    15    16    1
    20    15    17    1
    21    15    18    1
    22    13    14   ar
    23     6     7    1
    24     7     8    1
    25    25    26   ar
    26    26    27   ar
    27    27    28   ar
    28    28    29    1
    29    29    30   ar
    30    30    31   ar
    31    31    32   ar
    32    32    33   ar
    33    33    34   ar
    34    28    24   ar
    35    34    29   ar
    36     8     1    1
    37     7     3    1
    38    14     9   ar
@<TRIPOS>MOLECULE
*****
 34 38 0 0 0
SMALL
GASTEIGER

@<TRIPOS>ATOM
      1 N         143.6378  139.5926  162.5364 N.3     1  UNL1       -0.2712
      2 C         144.8261  140.0917  163.3038 C.3     1  UNL1        0.0738
      3 C         144.5616  141.5159  163.6930 C.3     1  UNL1        0.0372
      4 C         145.1325  142.7046  164.4079 C.3     1  UNL1        0.0245
      5 C         144.1337  143.8205  164.3228 C.3     1  UNL1        0.0909
      6 N         142.9454  143.3214  163.5554 N.pl3   1  UNL1       -0.3077
      7 C         143.2099  141.8971  163.1662 C.3     1  UNL1        0.0901
      8 C         142.6389  140.7084  162.4513 C.3     1  UNL1        0.0921
      9 C         141.7096  144.1084  163.2337 C.ar    1  UNL1        0.0478
     10 C         141.6796  144.9970  162.0256 C.ar    1  UNL1        0.0145
     11 C         140.4438  145.7840  161.7039 C.ar    1  UNL1        0.0012
     12 C         139.2380  145.6824  162.5903 C.ar    1  UNL1        0.0039
     13 C         139.2680  144.7937  163.7984 C.ar    1  UNL1        0.0726
     14 C         140.5037  144.0067  164.1201 C.ar    1  UNL1        0.0184
     15 C         138.0622  144.6921  164.6848 C.3     1  UNL1        0.4186
     16 F         136.8564  144.5906  165.5711 F       1  UNL1       -0.1659
     17 F         137.2967  144.0446  163.5692 F       1  UNL1       -0.1659
     18 F         138.8277  145.3397  165.8004 F       1  UNL1       -0.1659
     19 C         143.4767  138.2189  161.9559 C.3     1  UNL1        0.0731
     20 C         142.1067  137.6316  161.7880 C.3     1  UNL1        0.0294
     21 C         141.3394  137.1622  162.9884 C.3     1  UNL1        0.0666
     22 S         140.4478  138.1149  163.7283 S.3     1  UNL1       -0.0756
     23 C         138.7254  140.1490  165.6111 C.3     1  UNL1        0.1340
     24 N         140.1134  139.6526  165.8889 N.ar    1  UNL1       -0.2872
     25 C         140.9051  138.7176  165.0235 C.ar    1  UNL1        0.1933
     26 N         142.2343  138.4912  165.6806 N.ar    1  UNL1       -0.1221
     27 N         142.2642  139.2862  166.9523 N.ar    1  UNL1       -0.1266
     28 C         140.9534  140.0041  167.0811 C.ar    1  UNL1        0.1862
     29 C         140.5529  140.9136  168.2046 C.ar    1  UNL1        0.1362
     30 C         139.6648  140.4049  169.3012 C.ar    1  UNL1        0.1211
     31 N         139.2643  141.3144  170.4247 N.ar    1  UNL1       -0.2390
     32 C         139.7519  142.7327  170.4516 C.ar    1  UNL1        0.1195
     33 C         140.6400  143.2415  169.3550 C.ar    1  UNL1        0.1196
     34 N         141.0405  142.3318  168.2315 N.ar    1  UNL1       -0.2375
@<TRIPOS>BOND
     1    23    24    1
     2    24    25   ar
     3    25    22    1
     4    22    21    1
     5    21    20    1
     6    20    19    1
     7    19     1    1
     8     1     2    1
     9     2     3    1
    10     3     4    1
    11     4     5    1
    12     5     6    1
    13     6     9    1
    14     9    10   ar
    15    10    11   ar
    16    11    12   ar
    17    12    13   ar
    18    13    15    1
    19    15    16    1
    20    15    17    1
    21    15    18    1
    22    13    14   ar
    23     6     7    1
    24     7     8    1
    25    25    26   ar
    26    26    27   ar
    27    27    28   ar
    28    28    29    1
    29    29    30   ar
    30    30    31   ar
    31    31    32   ar
    32    32    33   ar
    33    33    34   ar
    34    28    24   ar
    35    34    29   ar
    36     8     1    1
    37     7     3    1
    38    14     9   ar
@<TRIPOS>MOLECULE
*****
 34 38 0 0 0
SMALL
GASTEIGER

@<TRIPOS>ATOM
      1 N         142.4378  138.2979  162.9297 N.3     1  UNL1       -0.2712
      2 C         141.0880  137.6481  163.0047 C.3     1  UNL1        0.0738
      3 C         140.3880  138.1730  164.2231 C.3     1  UNL1        0.0372
      4 C         139.1211  138.0958  165.0225 C.3     1  UNL1        0.0245
      5 C         139.2553  139.0222  166.1946 C.3     1  UNL1        0.0909
      6 N         140.6052  139.6720  166.1196 N.pl3   1  UNL1       -0.3077
      7 C         141.3052  139.1471  164.9011 C.3     1  UNL1        0.0901
      8 C         142.5721  139.2244  164.1018 C.3     1  UNL1        0.0921
      9 C         141.1580  140.6711  167.0922 C.ar    1  UNL1        0.0478
     10 C         142.6006  141.0747  167.0144 C.ar    1  UNL1        0.0145
     11 C         143.1534  142.0739  167.9871 C.ar    1  UNL1        0.0012
     12 C         142.2636  142.6695  169.0375 C.ar    1  UNL1        0.0039
     13 C         140.8209  142.2660  169.1153 C.ar    1  UNL1        0.0726
     14 C         140.2681  141.2668  168.1427 C.ar    1  UNL1        0.0184
     15 C         139.9312  142.8616  170.1658 C.3     1  UNL1        0.4186
     16 F         139.0414  143.4573  171.2162 F       1  UNL1       -0.1659
     17 F         139.1499  141.5827  170.2292 F       1  UNL1       -0.1659
     18 F         140.7125  144.1406  170.1023 F       1  UNL1       -0.1659
     19 C         143.4719  138.0626  161.8689 C.3     1  UNL1        0.0731
     20 C         144.0555  139.2237  161.1197 C.3     1  UNL1        0.0294
     21 C         143.6896  139.4493  159.6826 C.3     1  UNL1        0.0666
     22 S         143.3469  140.8288  159.2035 S.3     1  UNL1       -0.0756
     23 C         140.7130  140.9915  161.1233 C.3     1  UNL1        0.1340
     24 N         141.8332  141.9879  161.0771 N.ar    1  UNL1       -0.2872
     25 C         143.0439  141.9131  160.1947 C.ar    1  UNL1        0.1933
     26 N         143.8985  143.1131  160.4775 N.ar    1  UNL1       -0.1221
     27 N         143.2159  143.9295  161.5346 N.ar    1  UNL1       -0.1266
     28 C         141.9395  143.2341  161.9053 C.ar    1  UNL1        0.1862
     29 C         140.9442  143.7027  162.9250 C.ar    1  UNL1        0.1362
     30 C         139.8463  144.6430  162.5245 C.ar    1  UNL1        0.1211
     31 N         138.8510  145.1116  163.5442 N.ar    1  UNL1       -0.2390
     32 C         138.9536  144.6397  164.9644 C.ar    1  UNL1        0.1195
     33 C         140.0515  143.6993  165.3649 C.ar    1  UNL1        0.1196
     34 N         141.0468  143.2308  164.3451 N.ar    1  UNL1       -0.2375
@<TRIPOS>BOND
     1    23    24    1
     2    24    25   ar
     3    25    22    1
     4    22    21    1
     5    21    20    1
     6    20    19    1
     7    19     1    1
     8     1     2    1
     9     2     3    1
    10     3     4    1
    11     4     5    1
    12     5     6    1
    13     6     9    1
    14     9    10   ar
    15    10    11   ar
    16    11    12   ar
    17    12    13   ar
    18    13    15    1
    19    15    16    1
    20    15    17    1
    21    15    18    1
    22    13    14   ar
    23     6     7    1
    24     7     8    1
    25    25    26   ar
    26    26    27   ar
    27    27    28   ar
    28    28    29    1
    29    29    30   ar
    30    30    31   ar
    31    31    32   ar
    32    32    33   ar
    33    33    34   ar
    34    28    24   ar
    35    34    29   ar
    36     8     1    1
    37     7     3    1
    38    14     9   ar
@<TRIPOS>MOLECULE
*****
 34 38 0 0 0
SMALL
GASTEIGER

@<TRIPOS>ATOM
      1 N         142.3151  143.9501  162.0341 N.3     1  UNL1       -0.2712
      2 C         143.6168  143.4154  161.5149 C.3     1  UNL1        0.0738
      3 C         144.1797  142.4836  162.5468 C.3     1  UNL1        0.0372
      4 C         145.3321  141.5772  162.8637 C.3     1  UNL1        0.0245
      5 C         145.0905  140.9758  164.2165 C.3     1  UNL1        0.0909
      6 N         143.7888  141.5106  164.7357 N.pl3   1  UNL1       -0.3077
      7 C         143.2259  142.4424  163.7038 C.3     1  UNL1        0.0901
      8 C         142.0734  143.3488  163.3869 C.3     1  UNL1        0.0921
      9 C         143.1603  141.1728  166.0551 C.ar    1  UNL1        0.0478
     10 C         143.0746  139.7432  166.5010 C.ar    1  UNL1        0.0145
     11 C         142.4462  139.4054  167.8204 C.ar    1  UNL1        0.0012
     12 C         141.9034  140.4973  168.6940 C.ar    1  UNL1        0.0039
     13 C         141.9890  141.9270  168.2482 C.ar    1  UNL1        0.0726
     14 C         142.6175  142.2647  166.9288 C.ar    1  UNL1        0.0184
     15 C         141.4462  143.0188  169.1218 C.3     1  UNL1        0.4186
     16 F         140.9034  144.1106  169.9954 F       1  UNL1       -0.1659
     17 F         140.1111  142.8927  168.4498 F       1  UNL1       -0.1659
     18 F         142.7813  143.1448  169.7938 F       1  UNL1       -0.1659
     19 C         141.4132  144.9165  161.3250 C.3     1  UNL1        0.0731
     20 C         141.3034  144.8808  159.8295 C.3     1  UNL1        0.0294
     21 C         140.0486  144.3754  159.1814 C.3     1  UNL1        0.0666
     22 S         139.6106  142.9574  159.3992 S.3     1  UNL1       -0.0756
     23 C         140.7279  140.6606  161.4305 C.3     1  UNL1        0.1340
     24 N         139.5027  141.5008  161.6379 N.ar    1  UNL1       -0.2872
     25 C         138.9892  142.5566  160.7043 C.ar    1  UNL1        0.1933
     26 N         137.7451  143.1411  161.3048 N.ar    1  UNL1       -0.1221
     27 N         137.4898  142.4466  162.6096 N.ar    1  UNL1       -0.1266
     28 C         138.5760  141.4329  162.8156 C.ar    1  UNL1        0.1862
     29 C         138.7117  140.5127  163.9924 C.ar    1  UNL1        0.1362
     30 C         138.9832  141.0746  165.3564 C.ar    1  UNL1        0.1211
     31 N         139.1189  140.1545  166.5332 N.ar    1  UNL1       -0.2390
     32 C         138.9831  138.6724  166.3459 C.ar    1  UNL1        0.1195
     33 C         138.7117  138.1105  164.9819 C.ar    1  UNL1        0.1196
     34 N         138.5760  139.0307  163.8051 N.ar    1  UNL1       -0.2375
@<TRIPOS>BOND
     1    23    24    1
     2    24    25   ar
     3    25    22    1
     4    22    21    1
     5    21    20    1
     6    20    19    1
     7    19     1    1
     8     1     2    1
     9     2     3    1
    10     3     4    1
    11     4     5    1
    12     5     6    1
    13     6     9    1
    14     9    10   ar
    15    10    11   ar
    16    11    12   ar
    17    12    13   ar
    18    13    15    1
    19    15    16    1
    20    15    17    1
    21    15    18    1
    22    13    14   ar
    23     6     7    1
    24     7     8    1
    25    25    26   ar
    26    26    27   ar
    27    27    28   ar
    28    28    29    1
    29    29    30   ar
    30    30    31   ar
    31    31    32   ar
    32    32    33   ar
    33    33    34   ar
    34    28    24   ar
    35    34    29   ar
    36     8     1    1
    37     7     3    1
    38    14     9   ar
@<TRIPOS>MOLECULE
*****
 34 38 0 0 0
SMALL
GASTEIGER

@<TRIPOS>ATOM
      1 N         141.8531  137.9099  162.2320 N.3     1  UNL1       -0.2712
      2 C         141.2471  137.0258  163.2812 C.3     1  UNL1        0.0738
      3 C         140.1601  137.7989  163.9674 C.3     1  UNL1        0.0372
      4 C         139.1137  137.7302  165.0399 C.3     1  UNL1        0.0245
      5 C         138.4013  139.0497  165.0776 C.3     1  UNL1        0.0909
      6 N         139.0074  139.9339  164.0283 N.pl3   1  UNL1       -0.3077
      7 C         140.0944  139.1608  163.3422 C.3     1  UNL1        0.0901
      8 C         141.1407  139.2294  162.2696 C.3     1  UNL1        0.0921
      9 C         138.5983  141.3436  163.7194 C.ar    1  UNL1        0.0478
     10 C         138.1498  141.7082  162.3352 C.ar    1  UNL1        0.0145
     11 C         137.7407  143.1178  162.0263 C.ar    1  UNL1        0.0012
     12 C         137.7801  144.1629  163.1016 C.ar    1  UNL1        0.0039
     13 C         138.2286  143.7984  164.4858 C.ar    1  UNL1        0.0726
     14 C         138.6377  142.3887  164.7947 C.ar    1  UNL1        0.0184
     15 C         138.2679  144.8435  165.5610 C.3     1  UNL1        0.4186
     16 F         138.3073  145.8886  166.6363 F       1  UNL1       -0.1659
     17 F         139.7641  144.8872  165.4637 F       1  UNL1       -0.1659
     18 F         136.7717  144.7997  165.6583 F       1  UNL1       -0.1659
     19 C         142.9747  137.5396  161.3073 C.3     1  UNL1        0.0731
     20 C         144.1552  138.4527  161.1568 C.3     1  UNL1        0.0294
     21 C         143.9447  139.9092  160.8666 C.3     1  UNL1        0.0666
     22 S         144.5325  140.9477  161.7754 S.3     1  UNL1       -0.0756
     23 C         144.2998  139.5178  164.6996 C.3     1  UNL1        0.1340
     24 N         143.6347  140.7980  164.2887 N.ar    1  UNL1       -0.2872
     25 C         143.7417  141.4553  162.9446 C.ar    1  UNL1        0.1933
     26 N         142.9191  142.7092  162.9749 N.ar    1  UNL1       -0.1221
     27 N         142.3036  142.8269  164.3378 N.ar    1  UNL1       -0.1266
     28 C         142.7459  141.6458  165.1498 C.ar    1  UNL1        0.1862
     29 C         142.3661  141.3622  166.5730 C.ar    1  UNL1        0.1362
     30 C         141.4130  140.2474  166.8870 C.ar    1  UNL1        0.1211
     31 N         141.0332  139.9638  168.3101 N.ar    1  UNL1       -0.2390
     32 C         141.6066  140.7952  169.4192 C.ar    1  UNL1        0.1195
     33 C         142.5598  141.9100  169.1053 C.ar    1  UNL1        0.1196
     34 N         142.9395  142.1935  167.6821 N.ar    1  UNL1       -0.2375
@<TRIPOS>BOND
     1    23    24    1
     2    24    25   ar
     3    25    22    1
     4    22    21    1
     5    21    20    1
     6    20    19    1
     7    19     1    1
     8     1     2    1
     9     2     3    1
    10     3     4    1
    11     4     5    1
    12     5     6    1
    13     6     9    1
    14     9    10   ar
    15    10    11   ar
    16    11    12   ar
    17    12    13   ar
    18    13    15    1
    19    15    16    1
    20    15    17    1
    21    15    18    1
    22    13    14   ar
    23     6     7    1
    24     7     8    1
    25    25    26   ar
    26    26    27   ar
    27    27    28   ar
    28    28    29    1
    29    29    30   ar
    30    30    31   ar
    31    31    32   ar
    32    32    33   ar
    33    33    34   ar
    34    28    24   ar
    35    34    29   ar
    36     8     1    1
    37     7     3    1
    38    14     9   ar
@<TRIPOS>MOLECULE
*****
 34 38 0 0 0
SMALL
GASTEIGER

@<TRIPOS>ATOM
      1 N         138.5306  140.9431  162.3635 N.3     1  UNL1       -0.2712
      2 C         137.6757  142.1754  162.3862 C.3     1  UNL1        0.0738
      3 C         138.1163  143.0240  163.5420 C.3     1  UNL1        0.0372
      4 C         137.8603  144.3100  164.2703 C.3     1  UNL1        0.0245
      5 C         138.8293  144.3971  165.4121 C.3     1  UNL1        0.0909
      6 N         139.6842  143.1647  165.3893 N.pl3   1  UNL1       -0.3077
      7 C         139.2436  142.3161  164.2336 C.3     1  UNL1        0.0901
      8 C         139.4996  141.0300  163.5052 C.3     1  UNL1        0.0921
      9 C         140.7863  142.8382  166.3531 C.ar    1  UNL1        0.0478
     10 C         142.1847  142.6320  165.8515 C.ar    1  UNL1        0.0145
     11 C         143.2868  142.3055  166.8153 C.ar    1  UNL1        0.0012
     12 C         142.9904  142.1853  168.2807 C.ar    1  UNL1        0.0039
     13 C         141.5918  142.3915  168.7825 C.ar    1  UNL1        0.0726
     14 C         140.4898  142.7180  167.8187 C.ar    1  UNL1        0.0184
     15 C         141.2954  142.2713  170.2479 C.3     1  UNL1        0.4186
     16 F         140.9990  142.1510  171.7134 F       1  UNL1       -0.1659
     17 F         140.2933  143.3818  170.1364 F       1  UNL1       -0.1659
     18 F         142.2975  141.1607  170.3594 F       1  UNL1       -0.1659
     19 C         138.4335  139.8209  161.3730 C.3     1  UNL1        0.0731
     20 C         137.8150  140.0595  160.0275 C.3     1  UNL1        0.0294
     21 C         138.6138  139.8174  158.7811 C.3     1  UNL1        0.0666
     22 S         139.5088  140.8942  158.2430 S.3     1  UNL1       -0.0756
     23 C         141.9520  141.1741  160.3882 C.3     1  UNL1        0.1340
     24 N         140.9377  142.2307  160.0642 N.ar    1  UNL1       -0.2872
     25 C         139.8147  142.1020  159.0782 C.ar    1  UNL1        0.1933
     26 N         139.0513  143.3932  159.0740 N.ar    1  UNL1       -0.1221
     27 N         139.7025  144.3199  160.0574 N.ar    1  UNL1       -0.1266
     28 C         140.8684  143.6015  160.6694 C.ar    1  UNL1        0.1862
     29 C         141.8012  144.1564  161.7048 C.ar    1  UNL1        0.1362
     30 C         141.2643  145.0000  162.8229 C.ar    1  UNL1        0.1211
     31 N         142.1971  145.5549  163.8583 N.ar    1  UNL1       -0.2390
     32 C         143.6667  145.2661  163.7756 C.ar    1  UNL1        0.1195
     33 C         144.2036  144.4224  162.6575 C.ar    1  UNL1        0.1196
     34 N         143.2707  143.8676  161.6221 N.ar    1  UNL1       -0.2375
@<TRIPOS>BOND
     1    23    24    1
     2    24    25   ar
     3    25    22    1
     4    22    21    1
     5    21    20    1
     6    20    19    1
     7    19     1    1
     8     1     2    1
     9     2     3    1
    10     3     4    1
    11     4     5    1
    12     5     6    1
    13     6     9    1
    14     9    10   ar
    15    10    11   ar
    16    11    12   ar
    17    12    13   ar
    18    13    15    1
    19    15    16    1
    20    15    17    1
    21    15    18    1
    22    13    14   ar
    23     6     7    1
    24     7     8    1
    25    25    26   ar
    26    26    27   ar
    27    27    28   ar
    28    28    29    1
    29    29    30   ar
    30    30    31   ar
    31    31    32   ar
    32    32    33   ar
    33    33    34   ar
    34    28    24   ar
    35    34    29   ar
    36     8     1    1
    37     7     3    1
    38    14     9   ar
@<TRIPOS>MOLECULE
*****
 34 38 0 0 0
SMALL
GASTEIGER

@<TRIPOS>ATOM
      1 N         138.3645  141.9963  163.0558 N.3     1  UNL1       -0.2712
      2 C         138.1452  140.5951  162.5676 C.3     1  UNL1        0.0738
      3 C         138.7306  139.6549  163.5791 C.3     1  UNL1        0.0372
      4 C         138.9569  138.2077  163.9025 C.3     1  UNL1        0.0245
      5 C         139.6779  138.1335  165.2159 C.3     1  UNL1        0.0909
      6 N         139.8972  139.5348  165.7041 N.pl3   1  UNL1       -0.3077
      7 C         139.3117  140.4750  164.6925 C.3     1  UNL1        0.0901
      8 C         139.0854  141.9222  164.3691 C.3     1  UNL1        0.0921
      9 C         140.5817  139.9270  166.9798 C.ar    1  UNL1        0.0478
     10 C         141.9315  139.3627  167.3109 C.ar    1  UNL1        0.0145
     11 C         142.6161  139.7549  168.5866 C.ar    1  UNL1        0.0012
     12 C         141.9508  140.7114  169.5314 C.ar    1  UNL1        0.0039
     13 C         140.6010  141.2757  169.2004 C.ar    1  UNL1        0.0726
     14 C         139.9164  140.8835  167.9246 C.ar    1  UNL1        0.0184
     15 C         139.9357  142.2322  170.1451 C.3     1  UNL1        0.4186
     16 F         139.2705  143.1886  171.0899 F       1  UNL1       -0.1659
     17 F         138.7365  141.3336  170.2105 F       1  UNL1       -0.1659
     18 F         141.1350  143.1308  170.0797 F       1  UNL1       -0.1659
     19 C         137.9377  143.2515  162.3540 C.3     1  UNL1        0.0731
     20 C         138.3481  144.5893  162.8941 C.3     1  UNL1        0.0294
     21 C         139.0620  145.5683  162.0098 C.3     1  UNL1        0.0666
     22 S         140.5559  145.5155  161.8851 S.3     1  UNL1       -0.0756
     23 C         141.0820  142.7103  160.3029 C.3     1  UNL1        0.1340
     24 N         141.5531  143.0433  161.6875 N.ar    1  UNL1       -0.2872
     25 C         141.3113  144.3327  162.4148 C.ar    1  UNL1        0.1933
     26 N         141.9574  144.2318  163.7647 N.ar    1  UNL1       -0.1221
     27 N         142.5986  142.8800  163.8717 N.ar    1  UNL1       -0.1266
     28 C         142.3488  142.1454  162.5880 C.ar    1  UNL1        0.1862
     29 C         142.8130  140.7568  162.2619 C.ar    1  UNL1        0.1362
     30 C         142.4576  139.6151  163.1676 C.ar    1  UNL1        0.1211
     31 N         142.9219  138.2266  162.8415 N.ar    1  UNL1       -0.2390
     32 C         143.7416  137.9798  161.6097 C.ar    1  UNL1        0.1195
     33 C         144.0970  139.1214  160.7040 C.ar    1  UNL1        0.1196
     34 N         143.6327  140.5100  161.0302 N.ar    1  UNL1       -0.2375
@<TRIPOS>BOND
     1    23    24    1
     2    24    25   ar
     3    25    22    1
     4    22    21    1
     5    21    20    1
     6    20    19    1
     7    19     1    1
     8     1     2    1
     9     2     3    1
    10     3     4    1
    11     4     5    1
    12     5     6    1
    13     6     9    1
    14     9    10   ar
    15    10    11   ar
    16    11    12   ar
    17    12    13   ar
    18    13    15    1
    19    15    16    1
    20    15    17    1
    21    15    18    1
    22    13    14   ar
    23     6     7    1
    24     7     8    1
    25    25    26   ar
    26    26    27   ar
    27    27    28   ar
    28    28    29    1
    29    29    30   ar
    30    30    31   ar
    31    31    32   ar
    32    32    33   ar
    33    33    34   ar
    34    28    24   ar
    35    34    29   ar
    36     8     1    1
    37     7     3    1
    38    14     9   ar
@<TRIPOS>MOLECULE
*****
 34 38 0 0 0
SMALL
GASTEIGER

@<TRIPOS>ATOM
      1 N         144.0026  139.6049  162.7841 N.3     1  UNL1       -0.2712
      2 C         144.6759  140.9344  162.6139 C.3     1  UNL1        0.0738
      3 C         144.4419  141.7354  163.8603 C.3     1  UNL1        0.0372
      4 C         144.7135  143.0521  164.5255 C.3     1  UNL1        0.0245
      5 C         144.0634  143.0315  165.8772 C.3     1  UNL1        0.0909
      6 N         143.3901  141.7019  166.0474 N.pl3   1  UNL1       -0.3077
      7 C         143.6240  140.9009  164.8009 C.3     1  UNL1        0.0901
      8 C         143.3525  139.5841  164.1358 C.3     1  UNL1        0.0921
      9 C         142.6183  141.2523  167.2525 C.ar    1  UNL1        0.0478
     10 C         142.6645  139.8151  167.6794 C.ar    1  UNL1        0.0145
     11 C         141.8928  139.3655  168.8845 C.ar    1  UNL1        0.0012
     12 C         141.0749  140.3530  169.6627 C.ar    1  UNL1        0.0039
     13 C         141.0286  141.7903  169.2358 C.ar    1  UNL1        0.0726
     14 C         141.8004  142.2399  168.0307 C.ar    1  UNL1        0.0184
     15 C         140.2107  142.7779  170.0140 C.3     1  UNL1        0.4186
     16 F         139.3928  143.7655  170.7922 F       1  UNL1       -0.1659
     17 F         141.2645  143.8228  169.7956 F       1  UNL1       -0.1659
     18 F         139.1569  141.7329  170.2324 F       1  UNL1       -0.1659
     19 C         143.9828  138.4915  161.7791 C.3     1  UNL1        0.0731
     20 C         143.6254  138.7769  160.3506 C.3     1  UNL1        0.0294
     21 C         142.5373  137.9929  159.6786 C.3     1  UNL1        0.0666
     22 S         141.1187  138.4767  159.7371 S.3     1  UNL1       -0.0756
     23 C         140.6897  141.6749  160.2241 C.3     1  UNL1        0.1340
     24 N         140.3980  140.5855  161.2131 N.ar    1  UNL1       -0.2872
     25 C         140.5952  139.1155  160.9893 C.ar    1  UNL1        0.1933
     26 N         140.1770  138.3963  162.2374 N.ar    1  UNL1       -0.1221
     27 N         139.7214  139.4218  163.2327 N.ar    1  UNL1       -0.1266
     28 C         139.8579  140.7749  162.5997 C.ar    1  UNL1        0.1862
     29 C         139.5147  142.0869  163.2407 C.ar    1  UNL1        0.1362
     30 C         140.4174  142.6690  164.2877 C.ar    1  UNL1        0.1211
     31 N         140.0742  143.9810  164.9287 N.ar    1  UNL1       -0.2390
     32 C         138.8281  144.7108  164.5226 C.ar    1  UNL1        0.1195
     33 C         137.9254  144.1287  163.4756 C.ar    1  UNL1        0.1196
     34 N         138.2687  142.8167  162.8347 N.ar    1  UNL1       -0.2375
@<TRIPOS>BOND
     1    23    24    1
     2    24    25   ar
     3    25    22    1
     4    22    21    1
     5    21    20    1
     6    20    19    1
     7    19     1    1
     8     1     2    1
     9     2     3    1
    10     3     4    1
    11     4     5    1
    12     5     6    1
    13     6     9    1
    14     9    10   ar
    15    10    11   ar
    16    11    12   ar
    17    12    13   ar
    18    13    15    1
    19    15    16    1
    20    15    17    1
    21    15    18    1
    22    13    14   ar
    23     6     7    1
    24     7     8    1
    25    25    26   ar
    26    26    27   ar
    27    27    28   ar
    28    28    29    1
    29    29    30   ar
    30    30    31   ar
    31    31    32   ar
    32    32    33   ar
    33    33    34   ar
    34    28    24   ar
    35    34    29   ar
    36     8     1    1
    37     7     3    1
    38    14     9   ar
