@<TRIPOS>MOLECULE
*****
 35 38 0 0 0
SMALL
GASTEIGER

@<TRIPOS>ATOM
      1 C         138.8115  140.2897  164.6162 C.ar    1  UNL1       -0.0164
      2 C         138.9896  140.0274  163.1502 C.ar    1  UNL1        0.0106
      3 C         139.2873  138.6387  162.6675 C.ar    1  UNL1        0.0502
      4 C         139.4069  137.5124  163.6509 C.ar    1  UNL1        0.0148
      5 C         139.2288  137.7748  165.1170 C.ar    1  UNL1        0.0057
      6 C         138.9311  139.1635  165.5996 C.ar    1  UNL1        0.0513
      7 C         138.7530  139.4258  167.0658 C.ar    1  UNL1        0.2509
      8 N         137.7475  138.7677  167.9635 N.ar    1  UNL1       -0.1058
      9 N         137.9222  139.3275  169.3441 N.ar    1  UNL1       -0.0923
     10 C         139.0357  140.3317  169.2997 C.ar    1  UNL1        0.3086
     11 O         139.5491  140.3924  167.8916 O.2     1  UNL1       -0.4049
     12 N         139.5460  141.1341  170.4596 N.pl3   1  UNL1       -0.2871
     13 H         139.0117  141.8810  170.8146 H       1  UNL1        0.1512
     14 C         140.8704  140.7986  171.0788 C.3     1  UNL1        0.0925
     15 C         142.0849  141.6102  170.7375 C.3     1  UNL1        0.0386
     16 C         143.1660  141.0189  169.8823 C.3     1  UNL1        0.0738
     17 N         142.9091  140.7479  168.4294 N.3     1  UNL1       -0.2726
     18 C         142.7590  141.8899  167.4686 C.3     1  UNL1        0.0721
     19 C         142.5021  141.6189  166.0158 C.3     1  UNL1        0.0174
     20 C         142.3953  140.2059  165.5239 C.3     1  UNL1        0.0029
     21 C         142.5455  139.0639  166.4847 C.3     1  UNL1        0.0174
     22 C         142.8024  139.3349  167.9376 C.3     1  UNL1        0.0721
     23 N         139.4654  138.3763  161.2013 N.am    1  UNL1       -0.2803
     24 C         140.7387  138.7770  160.5170 C.2     1  UNL1        0.2517
     25 O         141.8338  139.4400  161.2989 O.2     1  UNL1       -0.2697
     26 H         138.7467  137.9412  160.6883 H       1  UNL1        0.1552
     27 C         140.9168  138.5147  159.0510 C.ar    1  UNL1        0.0811
     28 C         139.7935  138.7944  158.0971 C.ar    1  UNL1        0.0068
     29 C         139.9717  138.5320  156.6309 C.ar    1  UNL1        0.0003
     30 C         141.2732  137.9900  156.1187 C.ar    1  UNL1        0.0023
     31 C         142.3965  137.7103  157.0727 C.ar    1  UNL1        0.0298
     32 C         142.2184  137.9727  158.5387 C.ar    1  UNL1        0.1445
     33 F         143.3417  137.6930  159.4926 F       1  UNL1       -0.2040
     34 C         137.6702  142.5972  164.2658 C.3     1  UNL1        0.0050
     35 C         138.5137  141.6784  165.0989 C.3     1  UNL1        0.0266
@<TRIPOS>BOND
     1    34    35    1
     2    35     1    1
     3     1     2   ar
     4     2     3   ar
     5     3    23    1
     6    23    24   am
     7    24    25    2
     8    24    27    1
     9    27    28   ar
    10    28    29   ar
    11    29    30   ar
    12    30    31   ar
    13    31    32   ar
    14    32    33    1
    15     3     4   ar
    16     4     5   ar
    17     5     6   ar
    18     6     7    1
    19     7     8   ar
    20     8     9   ar
    21     9    10   ar
    22    10    12    1
    23    12    14    1
    24    14    15    1
    25    15    16    1
    26    16    17    1
    27    17    18    1
    28    18    19    1
    29    19    20    1
    30    20    21    1
    31    21    22    1
    32    10    11   ar
    33     6     1   ar
    34    11     7   ar
    35    32    27   ar
    36    22    17    1
    37    23    26    1
    38    12    13    1
@<TRIPOS>MOLECULE
*****
 35 38 0 0 0
SMALL
GASTEIGER

@<TRIPOS>ATOM
      1 C         142.2234  138.0541  163.9694 C.ar    1  UNL1       -0.0164
      2 C         142.5488  138.0047  162.5060 C.ar    1  UNL1        0.0106
      3 C         143.6633  138.8450  161.9567 C.ar    1  UNL1        0.0502
      4 C         144.4525  139.7347  162.8709 C.ar    1  UNL1        0.0148
      5 C         144.1271  139.7841  164.3343 C.ar    1  UNL1        0.0057
      6 C         143.0126  138.9438  164.8836 C.ar    1  UNL1        0.0513
      7 C         142.6872  138.9931  166.3471 C.ar    1  UNL1        0.2509
      8 N         143.5829  138.5481  167.4649 N.ar    1  UNL1       -0.1058
      9 N         142.8583  138.7761  168.7583 N.ar    1  UNL1       -0.0923
     10 C         141.5147  139.3622  168.4399 C.ar    1  UNL1        0.3086
     11 O         141.4090  139.4963  166.9496 O.2     1  UNL1       -0.4049
     12 N         140.4618  139.7467  169.4366 N.pl3   1  UNL1       -0.2871
     13 H         139.5090  139.6586  169.2049 H       1  UNL1        0.1512
     14 C         140.8605  140.2653  170.7864 C.3     1  UNL1        0.0925
     15 C         141.7943  141.4342  170.8948 C.3     1  UNL1        0.0386
     16 C         141.5312  142.6803  170.1025 C.3     1  UNL1        0.0738
     17 N         141.7279  142.6791  168.6154 N.3     1  UNL1       -0.2726
     18 C         143.0992  142.4822  168.0403 C.3     1  UNL1        0.0721
     19 C         143.2958  142.4810  166.5533 C.3     1  UNL1        0.0174
     20 C         142.1212  142.6768  165.6412 C.3     1  UNL1        0.0029
     21 C         140.7499  142.8737  166.2163 C.3     1  UNL1        0.0174
     22 C         140.5532  142.8749  167.7034 C.3     1  UNL1        0.0721
     23 N         143.9887  138.7956  160.4932 N.am    1  UNL1       -0.2803
     24 C         143.2943  139.7215  159.5389 C.2     1  UNL1        0.2517
     25 O         142.2746  140.6967  160.0481 O.2     1  UNL1       -0.2697
     26 H         144.6579  138.1556  160.1591 H       1  UNL1        0.1552
     27 C         143.6196  139.6721  158.0755 C.ar    1  UNL1        0.0811
     28 C         144.5784  140.6640  157.4864 C.ar    1  UNL1        0.0068
     29 C         144.9037  140.6146  156.0229 C.ar    1  UNL1        0.0003
     30 C         144.2702  139.5734  155.1485 C.ar    1  UNL1        0.0023
     31 C         143.3115  138.5815  155.7376 C.ar    1  UNL1        0.0298
     32 C         142.9862  138.6309  157.2010 C.ar    1  UNL1        0.1445
     33 F         142.0274  137.6390  157.7901 F       1  UNL1       -0.2040
     34 C         139.6902  137.6902  164.4171 C.3     1  UNL1        0.0050
     35 C         141.1089  137.2138  164.5187 C.3     1  UNL1        0.0266
@<TRIPOS>BOND
     1    34    35    1
     2    35     1    1
     3     1     2   ar
     4     2     3   ar
     5     3    23    1
     6    23    24   am
     7    24    25    2
     8    24    27    1
     9    27    28   ar
    10    28    29   ar
    11    29    30   ar
    12    30    31   ar
    13    31    32   ar
    14    32    33    1
    15     3     4   ar
    16     4     5   ar
    17     5     6   ar
    18     6     7    1
    19     7     8   ar
    20     8     9   ar
    21     9    10   ar
    22    10    12    1
    23    12    14    1
    24    14    15    1
    25    15    16    1
    26    16    17    1
    27    17    18    1
    28    18    19    1
    29    19    20    1
    30    20    21    1
    31    21    22    1
    32    10    11   ar
    33     6     1   ar
    34    11     7   ar
    35    32    27   ar
    36    22    17    1
    37    23    26    1
    38    12    13    1
@<TRIPOS>MOLECULE
*****
 35 38 0 0 0
SMALL
GASTEIGER

@<TRIPOS>ATOM
      1 C         139.8320  142.5624  164.4230 C.ar    1  UNL1       -0.0164
      2 C         140.2990  143.2048  163.1505 C.ar    1  UNL1        0.0106
      3 C         140.6908  142.3526  161.9800 C.ar    1  UNL1        0.0502
      4 C         140.6158  140.8579  162.0820 C.ar    1  UNL1        0.0148
      5 C         140.1489  140.2156  163.3545 C.ar    1  UNL1        0.0057
      6 C         139.7570  141.0678  164.5250 C.ar    1  UNL1        0.0513
      7 C         139.2901  140.4254  165.7975 C.ar    1  UNL1        0.2509
      8 N         138.2736  139.3281  165.9099 N.ar    1  UNL1       -0.1058
      9 N         138.1129  138.9920  167.3629 N.ar    1  UNL1       -0.0923
     10 C         139.0302  139.8816  168.1486 C.ar    1  UNL1        0.3086
     11 O         139.7577  140.7675  167.1811 O.2     1  UNL1       -0.4049
     12 N         139.1916  139.8848  169.6399 N.pl3   1  UNL1       -0.2871
     13 H         138.7414  139.1998  170.1852 H       1  UNL1        0.1512
     14 C         140.0391  140.9315  170.3003 C.3     1  UNL1        0.0925
     15 C         141.3780  140.5641  170.8680 C.3     1  UNL1        0.0386
     16 C         142.6330  141.0234  170.1870 C.3     1  UNL1        0.0738
     17 N         142.7784  140.8731  168.7016 N.3     1  UNL1       -0.2726
     18 C         142.9362  142.0884  167.8366 C.3     1  UNL1        0.0721
     19 C         143.0815  141.9381  166.3513 C.3     1  UNL1        0.0174
     20 C         143.0690  140.5725  165.7308 C.3     1  UNL1        0.0029
     21 C         142.9112  139.3572  166.5958 C.3     1  UNL1        0.0174
     22 C         142.7659  139.5075  168.0812 C.3     1  UNL1        0.0721
     23 N         141.1578  142.9950  160.7074 N.am    1  UNL1       -0.2803
     24 C         140.1573  143.4614  159.6918 C.2     1  UNL1        0.2517
     25 O         138.6900  143.2853  159.9486 O.2     1  UNL1       -0.2697
     26 H         142.1208  143.1106  160.5389 H       1  UNL1        0.1552
     27 C         140.6242  144.1038  158.4193 C.ar    1  UNL1        0.0811
     28 C         140.2811  145.5355  158.1321 C.ar    1  UNL1        0.0068
     29 C         140.7480  146.1779  156.8595 C.ar    1  UNL1        0.0003
     30 C         141.5580  145.3886  155.8742 C.ar    1  UNL1        0.0023
     31 C         141.9011  143.9569  156.1614 C.ar    1  UNL1        0.0298
     32 C         141.4343  143.3145  157.4339 C.ar    1  UNL1        0.1445
     33 F         141.7774  141.8828  157.7211 F       1  UNL1       -0.2040
     34 C         138.7887  144.7466  165.3668 C.3     1  UNL1        0.0050
     35 C         139.4402  143.4147  165.5935 C.3     1  UNL1        0.0266
@<TRIPOS>BOND
     1    34    35    1
     2    35     1    1
     3     1     2   ar
     4     2     3   ar
     5     3    23    1
     6    23    24   am
     7    24    25    2
     8    24    27    1
     9    27    28   ar
    10    28    29   ar
    11    29    30   ar
    12    30    31   ar
    13    31    32   ar
    14    32    33    1
    15     3     4   ar
    16     4     5   ar
    17     5     6   ar
    18     6     7    1
    19     7     8   ar
    20     8     9   ar
    21     9    10   ar
    22    10    12    1
    23    12    14    1
    24    14    15    1
    25    15    16    1
    26    16    17    1
    27    17    18    1
    28    18    19    1
    29    19    20    1
    30    20    21    1
    31    21    22    1
    32    10    11   ar
    33     6     1   ar
    34    11     7   ar
    35    32    27   ar
    36    22    17    1
    37    23    26    1
    38    12    13    1
@<TRIPOS>MOLECULE
*****
 35 38 0 0 0
SMALL
GASTEIGER

@<TRIPOS>ATOM
      1 C         138.8274  139.7622  163.6815 C.ar    1  UNL1       -0.0164
      2 C         139.3132  139.6457  162.2672 C.ar    1  UNL1        0.0106
      3 C         140.1921  138.4974  161.8682 C.ar    1  UNL1        0.0502
      4 C         140.5852  137.4657  162.8836 C.ar    1  UNL1        0.0148
      5 C         140.0994  137.5823  164.2979 C.ar    1  UNL1        0.0057
      6 C         139.2205  138.7305  164.6969 C.ar    1  UNL1        0.0513
      7 C         138.7346  138.8470  166.1113 C.ar    1  UNL1        0.2509
      8 N         137.5456  138.1438  166.6959 N.ar    1  UNL1       -0.1058
      9 N         137.4287  138.5494  168.1352 N.ar    1  UNL1       -0.0923
     10 C         138.5455  139.5032  168.4403 C.ar    1  UNL1        0.3086
     11 O         139.3526  139.6871  167.1894 O.2     1  UNL1       -0.4049
     12 N         138.8089  140.1581  169.7638 N.pl3   1  UNL1       -0.2871
     13 H         138.3273  139.8554  170.5673 H       1  UNL1        0.1512
     14 C         139.8062  141.2742  169.8630 C.3     1  UNL1        0.0925
     15 C         141.2267  140.9790  170.2439 C.3     1  UNL1        0.0386
     16 C         142.3513  141.4604  169.3759 C.3     1  UNL1        0.0738
     17 N         142.5372  140.8867  168.0024 N.3     1  UNL1       -0.2726
     18 C         142.7297  139.4096  167.8262 C.3     1  UNL1        0.0721
     19 C         142.9155  138.8360  166.4528 C.3     1  UNL1        0.0174
     20 C         142.9088  139.7395  165.2554 C.3     1  UNL1        0.0029
     21 C         142.7162  141.2165  165.4316 C.3     1  UNL1        0.0174
     22 C         142.5304  141.7902  166.8051 C.3     1  UNL1        0.0721
     23 N         140.6779  138.3809  160.4538 N.am    1  UNL1       -0.2803
     24 C         142.0963  138.7339  160.1165 C.2     1  UNL1        0.2517
     25 O         143.0288  139.2033  161.1937 O.2     1  UNL1       -0.2697
     26 H         140.0659  138.0728  159.7469 H       1  UNL1        0.1552
     27 C         142.5821  138.6174  158.7022 C.ar    1  UNL1        0.0811
     28 C         142.6268  137.2759  158.0326 C.ar    1  UNL1        0.0068
     29 C         143.1127  137.1595  156.6182 C.ar    1  UNL1        0.0003
     30 C         143.5538  138.3845  155.8735 C.ar    1  UNL1        0.0023
     31 C         143.5091  139.7260  156.5431 C.ar    1  UNL1        0.0298
     32 C         143.0233  139.8425  157.9574 C.ar    1  UNL1        0.1445
     33 F         142.9786  141.1840  158.6270 F       1  UNL1       -0.2040
     34 C         137.5886  141.9640  163.0752 C.3     1  UNL1        0.0050
     35 C         137.9485  140.9104  164.0804 C.3     1  UNL1        0.0266
@<TRIPOS>BOND
     1    34    35    1
     2    35     1    1
     3     1     2   ar
     4     2     3   ar
     5     3    23    1
     6    23    24   am
     7    24    25    2
     8    24    27    1
     9    27    28   ar
    10    28    29   ar
    11    29    30   ar
    12    30    31   ar
    13    31    32   ar
    14    32    33    1
    15     3     4   ar
    16     4     5   ar
    17     5     6   ar
    18     6     7    1
    19     7     8   ar
    20     8     9   ar
    21     9    10   ar
    22    10    12    1
    23    12    14    1
    24    14    15    1
    25    15    16    1
    26    16    17    1
    27    17    18    1
    28    18    19    1
    29    19    20    1
    30    20    21    1
    31    21    22    1
    32    10    11   ar
    33     6     1   ar
    34    11     7   ar
    35    32    27   ar
    36    22    17    1
    37    23    26    1
    38    12    13    1
@<TRIPOS>MOLECULE
*****
 35 38 0 0 0
SMALL
GASTEIGER

@<TRIPOS>ATOM
      1 C         143.8674  142.5512  161.5483 C.ar    1  UNL1       -0.0164
      2 C         144.7583  142.6601  160.3466 C.ar    1  UNL1        0.0106
      3 C         144.1646  142.6480  158.9692 C.ar    1  UNL1        0.0502
      4 C         142.6799  142.5270  158.7935 C.ar    1  UNL1        0.0148
      5 C         141.7889  142.4181  159.9952 C.ar    1  UNL1        0.0057
      6 C         142.3826  142.4302  161.3727 C.ar    1  UNL1        0.0513
      7 C         141.4916  142.3213  162.5745 C.ar    1  UNL1        0.2509
      8 N         140.6509  143.4215  163.1513 N.ar    1  UNL1       -0.1058
      9 N         139.9245  142.8732  164.3437 N.ar    1  UNL1       -0.0923
     10 C         140.3163  141.4341  164.5038 C.ar    1  UNL1        0.3086
     11 O         141.2848  141.0930  163.4103 O.2     1  UNL1       -0.4049
     12 N         139.8258  140.5001  165.5701 N.pl3   1  UNL1       -0.2871
     13 H         139.1208  140.7908  166.1928 H       1  UNL1        0.1512
     14 C         140.4094  139.1233  165.6877 C.3     1  UNL1        0.0925
     15 C         140.0776  138.0782  164.6641 C.3     1  UNL1        0.0386
     16 C         141.1780  137.3221  163.9804 C.3     1  UNL1        0.0738
     17 N         141.8198  137.8840  162.7465 N.3     1  UNL1       -0.2726
     18 C         141.0133  138.0562  161.4936 C.3     1  UNL1        0.0721
     19 C         141.6550  138.6180  160.2597 C.3     1  UNL1        0.0174
     20 C         143.1034  139.0078  160.2788 C.3     1  UNL1        0.0029
     21 C         143.9099  138.8357  161.5317 C.3     1  UNL1        0.0174
     22 C         143.2681  138.2738  162.7656 C.3     1  UNL1        0.0721
     23 N         145.0557  142.7569  157.7674 N.am    1  UNL1       -0.2803
     24 C         145.4397  141.5239  157.0043 C.2     1  UNL1        0.2517
     25 O         144.9328  140.1820  157.4431 O.2     1  UNL1       -0.2697
     26 H         145.3884  143.6376  157.4794 H       1  UNL1        0.1552
     27 C         146.3308  141.6327  155.8026 C.ar    1  UNL1        0.0811
     28 C         145.8343  141.1898  154.4582 C.ar    1  UNL1        0.0068
     29 C         146.7254  141.2987  153.2565 C.ar    1  UNL1        0.0003
     30 C         148.1129  141.8505  153.3991 C.ar    1  UNL1        0.0023
     31 C         148.6093  142.2934  154.7435 C.ar    1  UNL1        0.0298
     32 C         147.7183  142.1845  155.9452 C.ar    1  UNL1        0.1445
     33 F         148.2148  142.6275  157.2896 F       1  UNL1       -0.2040
     34 C         145.6691  141.7274  163.2291 C.3     1  UNL1        0.0050
     35 C         144.4611  142.5633  162.9258 C.3     1  UNL1        0.0266
@<TRIPOS>BOND
     1    34    35    1
     2    35     1    1
     3     1     2   ar
     4     2     3   ar
     5     3    23    1
     6    23    24   am
     7    24    25    2
     8    24    27    1
     9    27    28   ar
    10    28    29   ar
    11    29    30   ar
    12    30    31   ar
    13    31    32   ar
    14    32    33    1
    15     3     4   ar
    16     4     5   ar
    17     5     6   ar
    18     6     7    1
    19     7     8   ar
    20     8     9   ar
    21     9    10   ar
    22    10    12    1
    23    12    14    1
    24    14    15    1
    25    15    16    1
    26    16    17    1
    27    17    18    1
    28    18    19    1
    29    19    20    1
    30    20    21    1
    31    21    22    1
    32    10    11   ar
    33     6     1   ar
    34    11     7   ar
    35    32    27   ar
    36    22    17    1
    37    23    26    1
    38    12    13    1
@<TRIPOS>MOLECULE
*****
 35 38 0 0 0
SMALL
GASTEIGER

@<TRIPOS>ATOM
      1 C         137.8408  140.8979  163.5044 C.ar    1  UNL1       -0.0164
      2 C         137.6602  140.9616  162.0167 C.ar    1  UNL1        0.0106
      3 C         137.9123  139.7440  161.1778 C.ar    1  UNL1        0.0502
      4 C         138.3449  138.4626  161.8265 C.ar    1  UNL1        0.0148
      5 C         138.5255  138.3989  163.3142 C.ar    1  UNL1        0.0057
      6 C         138.2734  139.6166  164.1531 C.ar    1  UNL1        0.0513
      7 C         138.4540  139.5528  165.6409 C.ar    1  UNL1        0.2509
      8 N         137.6380  138.7305  166.5937 N.ar    1  UNL1       -0.1058
      9 N         138.1620  138.9697  167.9787 N.ar    1  UNL1       -0.0923
     10 C         139.3020  139.9399  167.8819 C.ar    1  UNL1        0.3086
     11 O         139.4824  140.3002  166.4370 O.2     1  UNL1       -0.4049
     12 N         140.1181  140.4585  169.0285 N.pl3   1  UNL1       -0.2871
     13 H         140.1807  139.9395  169.8627 H       1  UNL1        0.1512
     14 C         140.8390  141.7681  168.9041 C.3     1  UNL1        0.0925
     15 C         142.3316  141.7915  168.7569 C.3     1  UNL1        0.0386
     16 C         142.9489  141.9501  167.3991 C.3     1  UNL1        0.0738
     17 N         142.6855  140.9297  166.3316 N.3     1  UNL1       -0.2726
     18 C         142.8444  139.4693  166.6344 C.3     1  UNL1        0.0721
     19 C         142.5810  138.4490  165.5669 C.3     1  UNL1        0.0174
     20 C         142.1586  138.8891  164.1965 C.3     1  UNL1        0.0029
     21 C         141.9997  140.3495  163.8937 C.3     1  UNL1        0.0174
     22 C         142.2631  141.3700  164.9612 C.3     1  UNL1        0.0721
     23 N         137.7316  139.8077  159.6900 N.am    1  UNL1       -0.2803
     24 C         138.8964  140.1446  158.8069 C.2     1  UNL1        0.2517
     25 O         140.2417  140.4177  159.4115 O.2     1  UNL1       -0.2697
     26 H         136.8487  139.6285  159.2932 H       1  UNL1        0.1552
     27 C         138.7158  140.2083  157.3192 C.ar    1  UNL1        0.0811
     28 C         139.3193  139.1498  156.4444 C.ar    1  UNL1        0.0068
     29 C         139.1387  139.2136  154.9566 C.ar    1  UNL1        0.0003
     30 C         138.3547  140.3359  154.3437 C.ar    1  UNL1        0.0023
     31 C         137.7512  141.3944  155.2185 C.ar    1  UNL1        0.0298
     32 C         137.9318  141.3307  156.7062 C.ar    1  UNL1        0.1445
     33 F         137.3283  142.3892  157.5810 F       1  UNL1       -0.2040
     34 C         138.6135  143.2091  164.4050 C.3     1  UNL1        0.0050
     35 C         137.5887  142.1155  164.3433 C.3     1  UNL1        0.0266
@<TRIPOS>BOND
     1    34    35    1
     2    35     1    1
     3     1     2   ar
     4     2     3   ar
     5     3    23    1
     6    23    24   am
     7    24    25    2
     8    24    27    1
     9    27    28   ar
    10    28    29   ar
    11    29    30   ar
    12    30    31   ar
    13    31    32   ar
    14    32    33    1
    15     3     4   ar
    16     4     5   ar
    17     5     6   ar
    18     6     7    1
    19     7     8   ar
    20     8     9   ar
    21     9    10   ar
    22    10    12    1
    23    12    14    1
    24    14    15    1
    25    15    16    1
    26    16    17    1
    27    17    18    1
    28    18    19    1
    29    19    20    1
    30    20    21    1
    31    21    22    1
    32    10    11   ar
    33     6     1   ar
    34    11     7   ar
    35    32    27   ar
    36    22    17    1
    37    23    26    1
    38    12    13    1
@<TRIPOS>MOLECULE
*****
 35 38 0 0 0
SMALL
GASTEIGER

@<TRIPOS>ATOM
      1 C         139.9143  140.7442  162.1054 C.ar    1  UNL1       -0.0164
      2 C         140.1036  140.5056  163.5741 C.ar    1  UNL1        0.0106
      3 C         139.1072  141.0463  164.5563 C.ar    1  UNL1        0.0502
      4 C         137.9215  141.8257  164.0698 C.ar    1  UNL1        0.0148
      5 C         137.7322  142.0643  162.6011 C.ar    1  UNL1        0.0057
      6 C         138.7287  141.5235  161.6189 C.ar    1  UNL1        0.0513
      7 C         138.5394  141.7621  160.1500 C.ar    1  UNL1        0.2509
      8 N         137.9798  140.7816  159.1624 N.ar    1  UNL1       -0.1058
      9 N         137.9710  141.4367  157.8131 N.ar    1  UNL1       -0.0923
     10 C         138.5252  142.8221  157.9667 C.ar    1  UNL1        0.3086
     11 O         138.8764  143.0232  159.4111 O.2     1  UNL1       -0.4049
     12 N         138.6978  143.8294  156.8688 N.pl3   1  UNL1       -0.2871
     13 H         137.9809  143.9647  156.2077 H       1  UNL1        0.1512
     14 C         139.9626  144.6307  156.7782 C.3     1  UNL1        0.0925
     15 C         140.2767  145.6572  157.8259 C.3     1  UNL1        0.0386
     16 C         141.4145  145.4337  158.7774 C.3     1  UNL1        0.0738
     17 N         141.1374  145.1421  160.2226 N.3     1  UNL1       -0.2726
     18 C         140.0479  145.8811  160.9414 C.3     1  UNL1        0.0721
     19 C         139.7709  145.5895  162.3864 C.3     1  UNL1        0.0174
     20 C         140.5834  144.5588  163.1127 C.3     1  UNL1        0.0029
     21 C         141.6729  143.8198  162.3939 C.3     1  UNL1        0.0174
     22 C         141.9500  144.1114  160.9488 C.3     1  UNL1        0.0721
     23 N         139.2965  140.8077  166.0251 N.am    1  UNL1       -0.2803
     24 C         140.2475  141.6640  166.8076 C.2     1  UNL1        0.2517
     25 O         141.0092  142.7590  166.1213 O.2     1  UNL1       -0.2697
     26 H         138.7965  140.0891  166.4755 H       1  UNL1        0.1552
     27 C         140.4368  141.4255  168.2763 C.ar    1  UNL1        0.0811
     28 C         140.7199  140.0416  168.7810 C.ar    1  UNL1        0.0068
     29 C         140.9093  139.8030  170.2498 C.ar    1  UNL1        0.0003
     30 C         140.8155  140.9484  171.2138 C.ar    1  UNL1        0.0023
     31 C         140.5323  142.3322  170.7092 C.ar    1  UNL1        0.0298
     32 C         140.3430  142.5708  169.2404 C.ar    1  UNL1        0.1445
     33 F         140.0599  143.9547  168.7357 F       1  UNL1       -0.2040
     34 C         142.1707  139.5539  161.6136 C.3     1  UNL1        0.0050
     35 C         140.9107  140.2034  161.1232 C.3     1  UNL1        0.0266
@<TRIPOS>BOND
     1    34    35    1
     2    35     1    1
     3     1     2   ar
     4     2     3   ar
     5     3    23    1
     6    23    24   am
     7    24    25    2
     8    24    27    1
     9    27    28   ar
    10    28    29   ar
    11    29    30   ar
    12    30    31   ar
    13    31    32   ar
    14    32    33    1
    15     3     4   ar
    16     4     5   ar
    17     5     6   ar
    18     6     7    1
    19     7     8   ar
    20     8     9   ar
    21     9    10   ar
    22    10    12    1
    23    12    14    1
    24    14    15    1
    25    15    16    1
    26    16    17    1
    27    17    18    1
    28    18    19    1
    29    19    20    1
    30    20    21    1
    31    21    22    1
    32    10    11   ar
    33     6     1   ar
    34    11     7   ar
    35    32    27   ar
    36    22    17    1
    37    23    26    1
    38    12    13    1
@<TRIPOS>MOLECULE
*****
 35 38 0 0 0
SMALL
GASTEIGER

@<TRIPOS>ATOM
      1 C         139.0268  140.2024  163.1832 C.ar    1  UNL1       -0.0164
      2 C         138.9959  140.8569  161.8339 C.ar    1  UNL1        0.0106
      3 C         138.4586  142.2498  161.6882 C.ar    1  UNL1        0.0502
      4 C         137.9523  142.9882  162.8917 C.ar    1  UNL1        0.0148
      5 C         137.9833  142.3336  164.2409 C.ar    1  UNL1        0.0057
      6 C         138.5205  140.9407  164.3867 C.ar    1  UNL1        0.0513
      7 C         138.5515  140.2862  165.7361 C.ar    1  UNL1        0.2509
      8 N         137.7083  139.1248  166.1722 N.ar    1  UNL1       -0.1058
      9 N         138.0668  138.7990  167.5918 N.ar    1  UNL1       -0.0923
     10 C         139.1314  139.7591  168.0331 C.ar    1  UNL1        0.3086
     11 O         139.4310  140.6782  166.8862 O.2     1  UNL1       -0.4049
     12 N         139.7823  139.7939  169.3841 N.pl3   1  UNL1       -0.2871
     13 H         139.2489  139.6158  170.1922 H       1  UNL1        0.1512
     14 C         141.2458  140.1001  169.5039 C.3     1  UNL1        0.0925
     15 C         141.7288  141.5146  169.3780 C.3     1  UNL1        0.0386
     16 C         142.8357  141.8469  168.4218 C.3     1  UNL1        0.0738
     17 N         142.6717  141.5652  166.9575 N.3     1  UNL1       -0.2726
     18 C         142.9540  140.1931  166.4214 C.3     1  UNL1        0.0721
     19 C         142.7900  139.9116  164.9573 C.3     1  UNL1        0.0174
     20 C         142.3438  141.0022  164.0292 C.3     1  UNL1        0.0029
     21 C         142.0615  142.3743  164.5653 C.3     1  UNL1        0.0174
     22 C         142.2255  142.6559  166.0295 C.3     1  UNL1        0.0721
     23 N         138.4277  142.9043  160.3388 N.am    1  UNL1       -0.2803
     24 C         139.7082  143.3195  159.6771 C.2     1  UNL1        0.2517
     25 O         141.0197  143.0801  160.3647 O.2     1  UNL1       -0.2697
     26 H         137.5669  143.0615  159.8875 H       1  UNL1        0.1552
     27 C         139.6774  143.9740  158.3278 C.ar    1  UNL1        0.0811
     28 C         138.9092  143.3420  157.2051 C.ar    1  UNL1        0.0068
     29 C         138.8784  143.9966  155.8557 C.ar    1  UNL1        0.0003
     30 C         139.6156  145.2831  155.6292 C.ar    1  UNL1        0.0023
     31 C         140.3838  145.9150  156.7519 C.ar    1  UNL1        0.0298
     32 C         140.4146  145.2605  158.1012 C.ar    1  UNL1        0.1445
     33 F         141.1828  145.8925  159.2240 F       1  UNL1       -0.2040
     34 C         138.7092  137.6335  162.9599 C.3     1  UNL1        0.0050
     35 C         139.5640  138.8095  163.3289 C.3     1  UNL1        0.0266
@<TRIPOS>BOND
     1    34    35    1
     2    35     1    1
     3     1     2   ar
     4     2     3   ar
     5     3    23    1
     6    23    24   am
     7    24    25    2
     8    24    27    1
     9    27    28   ar
    10    28    29   ar
    11    29    30   ar
    12    30    31   ar
    13    31    32   ar
    14    32    33    1
    15     3     4   ar
    16     4     5   ar
    17     5     6   ar
    18     6     7    1
    19     7     8   ar
    20     8     9   ar
    21     9    10   ar
    22    10    12    1
    23    12    14    1
    24    14    15    1
    25    15    16    1
    26    16    17    1
    27    17    18    1
    28    18    19    1
    29    19    20    1
    30    20    21    1
    31    21    22    1
    32    10    11   ar
    33     6     1   ar
    34    11     7   ar
    35    32    27   ar
    36    22    17    1
    37    23    26    1
    38    12    13    1
@<TRIPOS>MOLECULE
*****
 35 38 0 0 0
SMALL
GASTEIGER

@<TRIPOS>ATOM
      1 C         140.5889  142.7819  161.9986 C.ar    1  UNL1       -0.0164
      2 C         140.2937  142.3547  163.4058 C.ar    1  UNL1        0.0106
      3 C         140.7337  143.2096  164.5571 C.ar    1  UNL1        0.0502
      4 C         141.4689  144.4918  164.3011 C.ar    1  UNL1        0.0148
      5 C         141.7642  144.9189  162.8939 C.ar    1  UNL1        0.0057
      6 C         141.3242  144.0640  161.7426 C.ar    1  UNL1        0.0513
      7 C         141.6195  144.4912  160.3353 C.ar    1  UNL1        0.2509
      8 N         142.7778  144.0333  159.4996 N.ar    1  UNL1       -0.1058
      9 N         142.6825  144.7104  158.1645 N.ar    1  UNL1       -0.0923
     10 C         141.4651  145.5868  158.1751 C.ar    1  UNL1        0.3086
     11 O         140.8081  145.4513  159.5168 O.2     1  UNL1       -0.4049
     12 N         140.9884  146.4475  157.0429 N.pl3   1  UNL1       -0.2871
     13 H         140.7002  147.3729  157.2156 H       1  UNL1        0.1512
     14 C         140.9509  145.8983  155.6476 C.3     1  UNL1        0.0925
     15 C         139.7174  146.0624  154.8100 C.3     1  UNL1        0.0386
     16 C         138.6736  147.0663  155.2008 C.3     1  UNL1        0.0738
     17 N         138.9943  148.5314  155.1727 N.3     1  UNL1       -0.2726
     18 C         138.4342  149.4421  156.2248 C.3     1  UNL1        0.0721
     19 C         138.7548  150.9071  156.1967 C.3     1  UNL1        0.0174
     20 C         139.6357  151.4615  155.1165 C.3     1  UNL1        0.0029
     21 C         140.1958  150.5508  154.0644 C.3     1  UNL1        0.0174
     22 C         139.8751  149.0857  154.0925 C.3     1  UNL1        0.0721
     23 N         140.4384  142.7824  165.9644 N.am    1  UNL1       -0.2803
     24 C         141.4776  142.0485  166.7590 C.2     1  UNL1        0.2517
     25 O         142.8120  141.7418  166.1464 O.2     1  UNL1       -0.2697
     26 H         139.5626  142.9837  166.3664 H       1  UNL1        0.1552
     27 C         141.1823  141.6213  168.1662 C.ar    1  UNL1        0.0811
     28 C         139.9202  140.8711  168.4731 C.ar    1  UNL1        0.0068
     29 C         139.6250  140.4439  169.8804 C.ar    1  UNL1        0.0003
     30 C         140.5919  140.7669  170.9807 C.ar    1  UNL1        0.0023
     31 C         141.8541  141.5170  170.6738 C.ar    1  UNL1        0.0298
     32 C         142.1493  141.9443  169.2666 C.ar    1  UNL1        0.1445
     33 F         143.4115  142.6944  168.9597 F       1  UNL1       -0.2040
     34 C         141.0598  140.8617  160.3130 C.3     1  UNL1        0.0050
     35 C         140.1489  141.9269  160.8473 C.3     1  UNL1        0.0266
@<TRIPOS>BOND
     1    34    35    1
     2    35     1    1
     3     1     2   ar
     4     2     3   ar
     5     3    23    1
     6    23    24   am
     7    24    25    2
     8    24    27    1
     9    27    28   ar
    10    28    29   ar
    11    29    30   ar
    12    30    31   ar
    13    31    32   ar
    14    32    33    1
    15     3     4   ar
    16     4     5   ar
    17     5     6   ar
    18     6     7    1
    19     7     8   ar
    20     8     9   ar
    21     9    10   ar
    22    10    12    1
    23    12    14    1
    24    14    15    1
    25    15    16    1
    26    16    17    1
    27    17    18    1
    28    18    19    1
    29    19    20    1
    30    20    21    1
    31    21    22    1
    32    10    11   ar
    33     6     1   ar
    34    11     7   ar
    35    32    27   ar
    36    22    17    1
    37    23    26    1
    38    12    13    1
