@<TRIPOS>MOLECULE
*****
 29 32 0 0 0
SMALL
GASTEIGER

@<TRIPOS>ATOM
      1 N         139.5396  140.3562  166.2825 N.ar    1  UNL1       -0.2156
      2 N         140.4922  141.1105  165.4030 N.ar    1  UNL1       -0.1708
      3 C         141.6946  141.7797  166.0001 C.ar    1  UNL1        0.0832
      4 C         141.9444  141.6945  167.4768 C.ar    1  UNL1        0.0202
      5 C         143.1467  142.3636  168.0738 C.ar    1  UNL1        0.0014
      6 C         143.3965  142.2784  169.5504 C.ar    1  UNL1        0.0000
      7 C         142.4439  141.5241  170.4299 C.ar    1  UNL1        0.0002
      8 C         141.2415  140.8549  169.8328 C.ar    1  UNL1        0.0048
      9 C         140.9918  140.9401  168.3563 C.ar    1  UNL1        0.0588
     10 C         139.7894  140.2710  167.7591 C.ar    1  UNL1        0.2763
     11 O         138.8368  139.5166  168.6386 O.2     1  UNL1       -0.2655
     12 C         138.3372  139.6870  165.6854 C.3     1  UNL1        0.1465
     13 N         137.8774  140.0597  163.0788 N.3     1  UNL1       -0.2721
     14 C         138.0822  139.2419  161.8381 C.3     1  UNL1        0.0722
     15 C         138.6874  137.9302  162.2421 C.3     1  UNL1        0.0188
     16 C         138.8565  137.9373  163.7325 C.3     1  UNL1        0.0194
     17 C         138.3560  139.2533  164.2496 C.3     1  UNL1        0.0821
     18 C         137.2961  141.4411  163.1382 C.3     1  UNL1        0.0721
     19 C         138.1371  142.6256  162.7642 C.3     1  UNL1        0.0173
     20 C         138.0870  144.3009  164.7492 C.3     1  UNL1        0.0000
     21 C         137.8063  143.9828  163.3105 C.3     1  UNL1        0.0014
     22 C         142.6471  142.5340  165.1206 C.3     1  UNL1        0.0738
     23 C         142.1331  143.2825  163.9267 C.ar    1  UNL1       -0.0161
     24 C         141.6810  144.7055  164.0711 C.ar    1  UNL1       -0.0030
     25 C         141.1670  145.4539  162.8771 C.ar    1  UNL1        0.0111
     26 C         141.1050  144.7794  161.5387 C.ar    1  UNL1        0.0577
     27 CL        140.5910  145.5279  160.3448 Cl      1  UNL1       -0.0822
     28 C         141.5570  143.3565  161.3943 C.ar    1  UNL1        0.0111
     29 C         142.0711  142.6080  162.5883 C.ar    1  UNL1       -0.0030
@<TRIPOS>BOND
     1    20    21    1
     2    21    19    1
     3    19    18    1
     4    18    13    1
     5    13    14    1
     6    14    15    1
     7    15    16    1
     8    16    17    1
     9    17    12    1
    10    12     1    1
    11     1     2   ar
    12     2     3   ar
    13     3    22    1
    14    22    23    1
    15    23    24   ar
    16    24    25   ar
    17    25    26   ar
    18    26    27    1
    19    26    28   ar
    20    28    29   ar
    21     3     4   ar
    22     4     5   ar
    23     5     6   ar
    24     6     7   ar
    25     7     8   ar
    26     8     9   ar
    27     9    10   ar
    28    10    11    2
    29    17    13    1
    30    10     1   ar
    31    29    23   ar
    32     9     4   ar
@<TRIPOS>MOLECULE
*****
 29 32 0 0 0
SMALL
GASTEIGER

@<TRIPOS>ATOM
      1 N         141.6816  139.1653  165.8140 N.ar    1  UNL1       -0.2156
      2 N         140.5431  140.0623  165.4279 N.ar    1  UNL1       -0.1708
      3 C         140.2009  141.2487  166.2794 C.ar    1  UNL1        0.0832
      4 C         140.9973  141.5382  167.5172 C.ar    1  UNL1        0.0202
      5 C         140.6551  142.7247  168.3688 C.ar    1  UNL1        0.0014
      6 C         141.4515  143.0141  169.6065 C.ar    1  UNL1        0.0000
      7 C         142.5900  142.1171  169.9926 C.ar    1  UNL1        0.0002
      8 C         142.9322  140.9306  169.1411 C.ar    1  UNL1        0.0048
      9 C         142.1358  140.6412  167.9034 C.ar    1  UNL1        0.0588
     10 C         142.4779  139.4547  167.0517 C.ar    1  UNL1        0.2763
     11 O         143.6165  138.5577  167.4379 O.2     1  UNL1       -0.2655
     12 C         142.0237  137.9787  164.9624 C.3     1  UNL1        0.1465
     13 N         143.8067  138.8566  163.1750 N.3     1  UNL1       -0.2721
     14 C         143.9078  138.8341  161.6786 C.3     1  UNL1        0.0722
     15 C         142.6893  138.1431  161.1420 C.3     1  UNL1        0.0188
     16 C         141.8352  137.7386  162.3069 C.3     1  UNL1        0.0194
     17 C         142.5258  138.1796  163.5633 C.3     1  UNL1        0.0821
     18 C         144.8104  139.4518  164.1175 C.3     1  UNL1        0.0721
     19 C         144.9843  140.9401  164.1864 C.3     1  UNL1        0.0173
     20 C         143.9643  142.8366  165.6398 C.3     1  UNL1        0.0000
     21 C         143.8217  141.8149  164.5509 C.3     1  UNL1        0.0014
     22 C         139.0624  142.1458  165.8933 C.3     1  UNL1        0.0738
     23 C         139.2602  143.1993  164.8441 C.ar    1  UNL1       -0.0161
     24 C         138.1245  143.5818  163.9417 C.ar    1  UNL1       -0.0030
     25 C         138.3224  144.6353  162.8925 C.ar    1  UNL1        0.0111
     26 C         139.6558  145.3065  162.7456 C.ar    1  UNL1        0.0577
     27 CL        139.8536  146.3600  161.6964 Cl      1  UNL1       -0.0822
     28 C         140.7914  144.9241  163.6479 C.ar    1  UNL1        0.0111
     29 C         140.5936  143.8705  164.6971 C.ar    1  UNL1       -0.0030
@<TRIPOS>BOND
     1    20    21    1
     2    21    19    1
     3    19    18    1
     4    18    13    1
     5    13    14    1
     6    14    15    1
     7    15    16    1
     8    16    17    1
     9    17    12    1
    10    12     1    1
    11     1     2   ar
    12     2     3   ar
    13     3    22    1
    14    22    23    1
    15    23    24   ar
    16    24    25   ar
    17    25    26   ar
    18    26    27    1
    19    26    28   ar
    20    28    29   ar
    21     3     4   ar
    22     4     5   ar
    23     5     6   ar
    24     6     7   ar
    25     7     8   ar
    26     8     9   ar
    27     9    10   ar
    28    10    11    2
    29    17    13    1
    30    10     1   ar
    31    29    23   ar
    32     9     4   ar
@<TRIPOS>MOLECULE
*****
 29 32 0 0 0
SMALL
GASTEIGER

@<TRIPOS>ATOM
      1 N         141.1071  139.8716  163.0080 N.ar    1  UNL1       -0.2156
      2 N         140.9444  141.1070  163.8430 N.ar    1  UNL1       -0.1708
      3 C         140.0828  141.0746  165.0704 C.ar    1  UNL1        0.0832
      4 C         139.3838  139.8067  165.4628 C.ar    1  UNL1        0.0202
      5 C         138.5223  139.7743  166.6903 C.ar    1  UNL1        0.0014
      6 C         137.8234  138.5064  167.0827 C.ar    1  UNL1        0.0000
      7 C         137.9861  137.2710  166.2477 C.ar    1  UNL1        0.0002
      8 C         138.8477  137.3034  165.0203 C.ar    1  UNL1        0.0048
      9 C         139.5466  138.5713  164.6279 C.ar    1  UNL1        0.0588
     10 C         140.4082  138.6037  163.4004 C.ar    1  UNL1        0.2763
     11 O         140.5709  137.3683  162.5654 O.2     1  UNL1       -0.2655
     12 C         141.9687  139.9041  161.7805 C.3     1  UNL1        0.1465
     13 N         144.3846  140.8064  162.4834 N.3     1  UNL1       -0.2721
     14 C         145.2425  141.9678  162.0772 C.3     1  UNL1        0.0722
     15 C         144.5001  142.7503  161.0348 C.3     1  UNL1        0.0188
     16 C         143.1834  142.0725  160.7968 C.3     1  UNL1        0.0194
     17 C         143.1120  140.8711  161.6921 C.3     1  UNL1        0.0821
     18 C         144.7374  139.7635  163.5021 C.3     1  UNL1        0.0721
     19 C         144.1866  139.8580  164.8942 C.3     1  UNL1        0.0173
     20 C         143.0071  138.7451  166.9239 C.3     1  UNL1        0.0000
     21 C         143.4689  138.6874  165.4979 C.3     1  UNL1        0.0014
     22 C         139.9201  142.3101  165.9054 C.3     1  UNL1        0.0738
     23 C         140.7692  142.5076  167.1259 C.ar    1  UNL1       -0.0161
     24 C         140.1689  143.0905  168.3709 C.ar    1  UNL1       -0.0030
     25 C         141.0181  143.2880  169.5915 C.ar    1  UNL1        0.0111
     26 C         142.4675  142.9026  169.5672 C.ar    1  UNL1        0.0577
     27 CL        143.3167  143.1001  170.7878 Cl      1  UNL1       -0.0822
     28 C         143.0678  142.3197  168.3223 C.ar    1  UNL1        0.0111
     29 C         142.2186  142.1222  167.1016 C.ar    1  UNL1       -0.0030
@<TRIPOS>BOND
     1    20    21    1
     2    21    19    1
     3    19    18    1
     4    18    13    1
     5    13    14    1
     6    14    15    1
     7    15    16    1
     8    16    17    1
     9    17    12    1
    10    12     1    1
    11     1     2   ar
    12     2     3   ar
    13     3    22    1
    14    22    23    1
    15    23    24   ar
    16    24    25   ar
    17    25    26   ar
    18    26    27    1
    19    26    28   ar
    20    28    29   ar
    21     3     4   ar
    22     4     5   ar
    23     5     6   ar
    24     6     7   ar
    25     7     8   ar
    26     8     9   ar
    27     9    10   ar
    28    10    11    2
    29    17    13    1
    30    10     1   ar
    31    29    23   ar
    32     9     4   ar
@<TRIPOS>MOLECULE
*****
 29 32 0 0 0
SMALL
GASTEIGER

@<TRIPOS>ATOM
      1 N         140.2344  139.4828  166.2525 N.ar    1  UNL1       -0.2156
      2 N         141.4631  140.2406  165.8452 N.ar    1  UNL1       -0.1708
      3 C         141.9934  141.3364  166.7216 C.ar    1  UNL1        0.0832
      4 C         141.2949  141.6743  168.0054 C.ar    1  UNL1        0.0202
      5 C         141.8251  142.7701  168.8818 C.ar    1  UNL1        0.0014
      6 C         141.1267  143.1080  170.1654 C.ar    1  UNL1        0.0000
      7 C         139.8979  142.3502  170.5727 C.ar    1  UNL1        0.0002
      8 C         139.3677  141.2544  169.6964 C.ar    1  UNL1        0.0048
      9 C         140.0661  140.9165  168.4127 C.ar    1  UNL1        0.0588
     10 C         139.5359  139.8207  167.5362 C.ar    1  UNL1        0.2763
     11 O         138.3072  139.0629  167.9435 O.2     1  UNL1       -0.2655
     12 C         139.7041  138.3869  165.3761 C.3     1  UNL1        0.1465
     13 N         138.3504  140.0222  163.7519 N.3     1  UNL1       -0.2721
     14 C         137.8107  139.9227  162.3559 C.3     1  UNL1        0.0722
     15 C         138.1523  138.5628  161.8227 C.3     1  UNL1        0.0188
     16 C         138.9032  137.8221  162.8892 C.3     1  UNL1        0.0194
     17 C         139.0256  138.7240  164.0815 C.3     1  UNL1        0.0821
     18 C         138.2352  141.2113  164.6590 C.3     1  UNL1        0.0721
     19 C         138.9072  142.5016  164.2933 C.3     1  UNL1        0.0173
     20 C         138.7410  144.8561  165.3789 C.3     1  UNL1        0.0000
     21 C         139.3098  143.4682  165.3674 C.3     1  UNL1        0.0014
     22 C         143.2221  142.0942  166.3143 C.3     1  UNL1        0.0738
     23 C         143.5940  142.1966  164.8648 C.ar    1  UNL1       -0.0161
     24 C         144.7405  141.3932  164.3260 C.ar    1  UNL1       -0.0030
     25 C         145.1124  141.4956  162.8765 C.ar    1  UNL1        0.0111
     26 C         144.3379  142.4014  161.9657 C.ar    1  UNL1        0.0577
     27 CL        144.7099  142.5039  160.5162 Cl      1  UNL1       -0.0822
     28 C         143.1915  143.2049  162.5044 C.ar    1  UNL1        0.0111
     29 C         142.8196  143.1025  163.9540 C.ar    1  UNL1       -0.0030
@<TRIPOS>BOND
     1    20    21    1
     2    21    19    1
     3    19    18    1
     4    18    13    1
     5    13    14    1
     6    14    15    1
     7    15    16    1
     8    16    17    1
     9    17    12    1
    10    12     1    1
    11     1     2   ar
    12     2     3   ar
    13     3    22    1
    14    22    23    1
    15    23    24   ar
    16    24    25   ar
    17    25    26   ar
    18    26    27    1
    19    26    28   ar
    20    28    29   ar
    21     3     4   ar
    22     4     5   ar
    23     5     6   ar
    24     6     7   ar
    25     7     8   ar
    26     8     9   ar
    27     9    10   ar
    28    10    11    2
    29    17    13    1
    30    10     1   ar
    31    29    23   ar
    32     9     4   ar
@<TRIPOS>MOLECULE
*****
 29 32 0 0 0
SMALL
GASTEIGER

@<TRIPOS>ATOM
      1 N         139.2029  139.1899  165.5250 N.ar    1  UNL1       -0.2156
      2 N         140.1468  140.2375  165.0133 N.ar    1  UNL1       -0.1708
      3 C         140.6752  141.2894  165.9429 C.ar    1  UNL1        0.0832
      4 C         140.2598  141.2938  167.3842 C.ar    1  UNL1        0.0202
      5 C         140.7883  142.3457  168.3139 C.ar    1  UNL1        0.0014
      6 C         140.3729  142.3500  169.7552 C.ar    1  UNL1        0.0000
      7 C         139.4291  141.3024  170.2669 C.ar    1  UNL1        0.0002
      8 C         138.9006  140.2505  169.3372 C.ar    1  UNL1        0.0048
      9 C         139.3160  140.2462  167.8959 C.ar    1  UNL1        0.0588
     10 C         138.7876  139.1942  166.9663 C.ar    1  UNL1        0.2763
     11 O         137.8438  138.1467  167.4779 O.2     1  UNL1       -0.2655
     12 C         138.6745  138.1380  164.5953 C.3     1  UNL1        0.1465
     13 N         140.2357  137.9236  162.4362 N.3     1  UNL1       -0.2721
     14 C         140.0517  138.1604  160.9665 C.3     1  UNL1        0.0722
     15 C         138.6413  138.6205  160.7441 C.3     1  UNL1        0.0188
     16 C         137.9538  138.6681  162.0764 C.3     1  UNL1        0.0194
     17 C         138.9392  138.2374  163.1222 C.3     1  UNL1        0.0821
     18 C         141.4951  137.4553  163.1028 C.3     1  UNL1        0.0721
     19 C         142.7740  138.2148  162.9082 C.3     1  UNL1        0.0173
     20 C         143.2725  138.5346  165.4378 C.3     1  UNL1        0.0000
     21 C         143.3327  139.0422  164.0275 C.3     1  UNL1        0.0014
     22 C         141.6190  142.3369  165.4312 C.3     1  UNL1        0.0738
     23 C         141.1280  143.3896  164.4820 C.ar    1  UNL1       -0.0161
     24 C         142.0190  143.8793  163.3790 C.ar    1  UNL1       -0.0030
     25 C         141.5280  144.9319  162.4299 C.ar    1  UNL1        0.0111
     26 C         140.1462  145.4948  162.5836 C.ar    1  UNL1        0.0577
     27 CL        139.6552  146.5474  161.6345 Cl      1  UNL1       -0.0822
     28 C         139.2553  145.0051  163.6865 C.ar    1  UNL1        0.0111
     29 C         139.7462  143.9525  164.6358 C.ar    1  UNL1       -0.0030
@<TRIPOS>BOND
     1    20    21    1
     2    21    19    1
     3    19    18    1
     4    18    13    1
     5    13    14    1
     6    14    15    1
     7    15    16    1
     8    16    17    1
     9    17    12    1
    10    12     1    1
    11     1     2   ar
    12     2     3   ar
    13     3    22    1
    14    22    23    1
    15    23    24   ar
    16    24    25   ar
    17    25    26   ar
    18    26    27    1
    19    26    28   ar
    20    28    29   ar
    21     3     4   ar
    22     4     5   ar
    23     5     6   ar
    24     6     7   ar
    25     7     8   ar
    26     8     9   ar
    27     9    10   ar
    28    10    11    2
    29    17    13    1
    30    10     1   ar
    31    29    23   ar
    32     9     4   ar
@<TRIPOS>MOLECULE
*****
 29 32 0 0 0
SMALL
GASTEIGER

@<TRIPOS>ATOM
      1 N         142.3595  139.9152  166.5841 N.ar    1  UNL1       -0.2156
      2 N         141.6737  141.0371  165.8624 N.ar    1  UNL1       -0.1708
      3 C         140.9842  142.1187  166.6400 C.ar    1  UNL1        0.0832
      4 C         140.9805  142.0783  168.1395 C.ar    1  UNL1        0.0202
      5 C         140.2910  143.1598  168.9172 C.ar    1  UNL1        0.0014
      6 C         140.2872  143.1194  170.4166 C.ar    1  UNL1        0.0000
      7 C         140.9730  141.9975  171.1384 C.ar    1  UNL1        0.0002
      8 C         141.6625  140.9159  170.3607 C.ar    1  UNL1        0.0048
      9 C         141.6662  140.9563  168.8613 C.ar    1  UNL1        0.0588
     10 C         142.3557  139.8747  168.0836 C.ar    1  UNL1        0.2763
     11 O         143.0415  138.7528  168.8053 O.2     1  UNL1       -0.2655
     12 C         143.0490  138.8336  165.8064 C.3     1  UNL1        0.1465
     13 N         141.2492  138.1179  163.9643 N.3     1  UNL1       -0.2721
     14 C         141.2733  137.9236  162.4772 C.3     1  UNL1        0.0722
     15 C         142.6622  138.2189  161.9935 C.3     1  UNL1        0.0188
     16 C         143.4964  138.5957  163.1818 C.3     1  UNL1        0.0194
     17 C         142.6231  138.5333  164.3999 C.3     1  UNL1        0.0821
     18 C         140.0599  137.9298  164.8589 C.3     1  UNL1        0.0721
     19 C         138.8659  138.8268  164.7179 C.3     1  UNL1        0.0173
     20 C         138.7437  139.2707  167.2748 C.3     1  UNL1        0.0000
     21 C         138.0783  139.2232  165.9313 C.3     1  UNL1        0.0014
     22 C         140.2985  143.2406  165.9183 C.3     1  UNL1        0.0738
     23 C         139.7604  143.0245  164.5349 C.ar    1  UNL1       -0.0161
     24 C         138.3542  142.5380  164.3447 C.ar    1  UNL1       -0.0030
     25 C         137.8161  142.3219  162.9613 C.ar    1  UNL1        0.0111
     26 C         138.6840  142.5923  161.7682 C.ar    1  UNL1        0.0577
     27 CL        138.1459  142.3762  160.3849 Cl      1  UNL1       -0.0822
     28 C         140.0901  143.0788  161.9584 C.ar    1  UNL1        0.0111
     29 C         140.6283  143.2949  163.3418 C.ar    1  UNL1       -0.0030
@<TRIPOS>BOND
     1    20    21    1
     2    21    19    1
     3    19    18    1
     4    18    13    1
     5    13    14    1
     6    14    15    1
     7    15    16    1
     8    16    17    1
     9    17    12    1
    10    12     1    1
    11     1     2   ar
    12     2     3   ar
    13     3    22    1
    14    22    23    1
    15    23    24   ar
    16    24    25   ar
    17    25    26   ar
    18    26    27    1
    19    26    28   ar
    20    28    29   ar
    21     3     4   ar
    22     4     5   ar
    23     5     6   ar
    24     6     7   ar
    25     7     8   ar
    26     8     9   ar
    27     9    10   ar
    28    10    11    2
    29    17    13    1
    30    10     1   ar
    31    29    23   ar
    32     9     4   ar
@<TRIPOS>MOLECULE
*****
 29 32 0 0 0
SMALL
GASTEIGER

@<TRIPOS>ATOM
      1 N         140.3385  141.2936  162.3723 N.ar    1  UNL1       -0.2156
      2 N         139.6315  140.8211  163.6079 N.ar    1  UNL1       -0.1708
      3 C         140.3975  140.1130  164.6859 C.ar    1  UNL1        0.0832
      4 C         141.8705  139.8775  164.5281 C.ar    1  UNL1        0.0202
      5 C         142.6365  139.1694  165.6060 C.ar    1  UNL1        0.0014
      6 C         144.1094  138.9339  165.4482 C.ar    1  UNL1        0.0000
      7 C         144.8164  139.4064  164.2125 C.ar    1  UNL1        0.0002
      8 C         144.0504  140.1145  163.1346 C.ar    1  UNL1        0.0048
      9 C         142.5775  140.3500  163.2924 C.ar    1  UNL1        0.0588
     10 C         141.8114  141.0581  162.2145 C.ar    1  UNL1        0.2763
     11 O         142.5184  141.5306  160.9788 O.2     1  UNL1       -0.2655
     12 C         139.5725  142.0017  161.2943 C.3     1  UNL1        0.1465
     13 N         139.5657  144.5908  161.9586 N.3     1  UNL1       -0.2721
     14 C         139.9743  145.8621  161.2755 C.3     1  UNL1        0.0722
     15 C         140.4943  145.5100  159.9133 C.3     1  UNL1        0.0188
     16 C         140.4070  144.0210  159.7545 C.3     1  UNL1        0.0194
     17 C         139.8331  143.4529  161.0186 C.3     1  UNL1        0.0821
     18 C         138.9907  144.4773  163.3394 C.3     1  UNL1        0.0721
     19 C         139.9029  144.3836  164.5265 C.3     1  UNL1        0.0173
     20 C         142.3268  145.1323  163.9665 C.3     1  UNL1        0.0000
     21 C         141.3530  144.0521  164.3337 C.3     1  UNL1        0.0014
     22 C         139.6905  139.6405  165.9215 C.3     1  UNL1        0.0738
     23 C         139.7618  140.4501  167.1823 C.ar    1  UNL1       -0.0161
     24 C         139.2397  139.8822  168.4688 C.ar    1  UNL1       -0.0030
     25 C         139.3110  140.6917  169.7295 C.ar    1  UNL1        0.0111
     26 C         139.9043  142.0691  169.7039 C.ar    1  UNL1        0.0577
     27 CL        139.9756  142.8786  170.9646 Cl      1  UNL1       -0.0822
     28 C         140.4264  142.6370  168.4175 C.ar    1  UNL1        0.0111
     29 C         140.3551  141.8275  167.1566 C.ar    1  UNL1       -0.0030
@<TRIPOS>BOND
     1    20    21    1
     2    21    19    1
     3    19    18    1
     4    18    13    1
     5    13    14    1
     6    14    15    1
     7    15    16    1
     8    16    17    1
     9    17    12    1
    10    12     1    1
    11     1     2   ar
    12     2     3   ar
    13     3    22    1
    14    22    23    1
    15    23    24   ar
    16    24    25   ar
    17    25    26   ar
    18    26    27    1
    19    26    28   ar
    20    28    29   ar
    21     3     4   ar
    22     4     5   ar
    23     5     6   ar
    24     6     7   ar
    25     7     8   ar
    26     8     9   ar
    27     9    10   ar
    28    10    11    2
    29    17    13    1
    30    10     1   ar
    31    29    23   ar
    32     9     4   ar
@<TRIPOS>MOLECULE
*****
 29 32 0 0 0
SMALL
GASTEIGER

@<TRIPOS>ATOM
      1 N         141.7595  139.6001  162.9013 N.ar    1  UNL1       -0.2156
      2 N         141.6183  140.8991  163.6379 N.ar    1  UNL1       -0.1708
      3 C         140.6491  141.0139  164.7769 C.ar    1  UNL1        0.0832
      4 C         139.8210  139.8297  165.1794 C.ar    1  UNL1        0.0202
      5 C         138.8518  139.9445  166.3184 C.ar    1  UNL1        0.0014
      6 C         138.0238  138.7603  166.7208 C.ar    1  UNL1        0.0000
      7 C         138.1650  137.4612  165.9842 C.ar    1  UNL1        0.0002
      8 C         139.1342  137.3464  164.8452 C.ar    1  UNL1        0.0048
      9 C         139.9622  138.5306  164.4428 C.ar    1  UNL1        0.0588
     10 C         140.9315  138.4159  163.3037 C.ar    1  UNL1        0.2763
     11 O         141.0727  137.1168  162.5671 O.2     1  UNL1       -0.2655
     12 C         142.7287  139.4853  161.7622 C.3     1  UNL1        0.1465
     13 N         143.9551  141.7132  160.9393 N.3     1  UNL1       -0.2721
     14 C         143.7811  142.6553  159.7851 C.3     1  UNL1        0.0722
     15 C         142.6360  142.1608  158.9517 C.3     1  UNL1        0.0188
     16 C         142.1025  140.9131  159.5910 C.3     1  UNL1        0.0194
     17 C         142.9177  140.6365  160.8194 C.3     1  UNL1        0.0821
     18 C         144.9857  141.8279  162.0232 C.3     1  UNL1        0.0721
     19 C         144.6703  142.5810  163.2815 C.3     1  UNL1        0.0173
     20 C         143.8539  144.7516  164.4528 C.3     1  UNL1        0.0000
     21 C         144.0478  143.9435  163.2040 C.3     1  UNL1        0.0014
     22 C         140.5079  142.3129  165.5135 C.3     1  UNL1        0.0738
     23 C         141.1512  142.4869  166.8573 C.ar    1  UNL1       -0.0161
     24 C         140.3328  142.9489  168.0265 C.ar    1  UNL1       -0.0030
     25 C         140.9762  143.1229  169.3703 C.ar    1  UNL1        0.0111
     26 C         142.4378  142.8349  169.5450 C.ar    1  UNL1        0.0577
     27 CL        143.0812  143.0088  170.8888 Cl      1  UNL1       -0.0822
     28 C         143.2562  142.3729  168.3759 C.ar    1  UNL1        0.0111
     29 C         142.6129  142.1989  167.0320 C.ar    1  UNL1       -0.0030
@<TRIPOS>BOND
     1    20    21    1
     2    21    19    1
     3    19    18    1
     4    18    13    1
     5    13    14    1
     6    14    15    1
     7    15    16    1
     8    16    17    1
     9    17    12    1
    10    12     1    1
    11     1     2   ar
    12     2     3   ar
    13     3    22    1
    14    22    23    1
    15    23    24   ar
    16    24    25   ar
    17    25    26   ar
    18    26    27    1
    19    26    28   ar
    20    28    29   ar
    21     3     4   ar
    22     4     5   ar
    23     5     6   ar
    24     6     7   ar
    25     7     8   ar
    26     8     9   ar
    27     9    10   ar
    28    10    11    2
    29    17    13    1
    30    10     1   ar
    31    29    23   ar
    32     9     4   ar
@<TRIPOS>MOLECULE
*****
 29 32 0 0 0
SMALL
GASTEIGER

@<TRIPOS>ATOM
      1 N         142.7286  141.1953  165.9537 N.ar    1  UNL1       -0.2156
      2 N         141.6991  140.2386  165.4295 N.ar    1  UNL1       -0.1708
      3 C         140.5372  139.8410  166.2909 C.ar    1  UNL1        0.0832
      4 C         140.4048  140.4001  167.6765 C.ar    1  UNL1        0.0202
      5 C         139.2430  140.0026  168.5379 C.ar    1  UNL1        0.0014
      6 C         139.1107  140.5617  169.9234 C.ar    1  UNL1        0.0000
      7 C         140.1402  141.5185  170.4476 C.ar    1  UNL1        0.0002
      8 C         141.3020  141.9160  169.5862 C.ar    1  UNL1        0.0048
      9 C         141.4344  141.3569  168.2007 C.ar    1  UNL1        0.0588
     10 C         142.5962  141.7545  167.3392 C.ar    1  UNL1        0.2763
     11 O         143.6257  142.7112  167.8634 O.2     1  UNL1       -0.2655
     12 C         143.8904  141.5929  165.0922 C.3     1  UNL1        0.1465
     13 N         142.8104  143.2073  163.2559 N.3     1  UNL1       -0.2721
     14 C         142.8605  143.2946  161.7593 C.3     1  UNL1        0.0722
     15 C         143.7388  142.1861  161.2594 C.3     1  UNL1        0.0188
     16 C         144.2315  141.4137  162.4471 C.3     1  UNL1        0.0194
     17 C         143.6578  142.0448  163.6810 C.3     1  UNL1        0.0821
     18 C         142.0471  144.1219  164.1673 C.3     1  UNL1        0.0721
     19 C         140.7190  143.6945  164.7183 C.3     1  UNL1        0.0173
     20 C         139.4916  145.1454  162.9468 C.3     1  UNL1        0.0000
     21 C         139.4528  144.1051  164.0267 C.3     1  UNL1        0.0014
     22 C         139.5077  138.8842  165.7667 C.3     1  UNL1        0.0738
     23 C         138.9180  139.0901  164.4030 C.ar    1  UNL1       -0.0161
     24 C         138.9435  137.9761  163.3988 C.ar    1  UNL1       -0.0030
     25 C         138.3538  138.1820  162.0351 C.ar    1  UNL1        0.0111
     26 C         137.7384  139.5018  161.6755 C.ar    1  UNL1        0.0577
     27 CL        137.1487  139.7077  160.3118 Cl      1  UNL1       -0.0822
     28 C         137.7128  140.6158  162.6796 C.ar    1  UNL1        0.0111
     29 C         138.3026  140.4100  164.0434 C.ar    1  UNL1       -0.0030
@<TRIPOS>BOND
     1    20    21    1
     2    21    19    1
     3    19    18    1
     4    18    13    1
     5    13    14    1
     6    14    15    1
     7    15    16    1
     8    16    17    1
     9    17    12    1
    10    12     1    1
    11     1     2   ar
    12     2     3   ar
    13     3    22    1
    14    22    23    1
    15    23    24   ar
    16    24    25   ar
    17    25    26   ar
    18    26    27    1
    19    26    28   ar
    20    28    29   ar
    21     3     4   ar
    22     4     5   ar
    23     5     6   ar
    24     6     7   ar
    25     7     8   ar
    26     8     9   ar
    27     9    10   ar
    28    10    11    2
    29    17    13    1
    30    10     1   ar
    31    29    23   ar
    32     9     4   ar
