@<TRIPOS>MOLECULE
*****
 30 33 0 0 0
SMALL
GASTEIGER

@<TRIPOS>ATOM
      1 C         143.0637  142.4306  167.0963 C.ar    1  UNL1        0.1488
      2 C         143.2441  142.1831  168.5646 C.ar    1  UNL1        0.0390
      3 C         142.2516  141.3419  169.3110 C.ar    1  UNL1        0.0417
      4 C         141.0786  140.7480  168.5889 C.ar    1  UNL1        0.1640
      5 N         139.9452  139.8835  169.0561 N.ar    1  UNL1       -0.2234
      6 C         139.0643  139.5967  167.8764 C.ar    1  UNL1        0.1197
      7 C         139.6532  140.2839  166.6802 C.ar    1  UNL1        0.1037
      8 N         140.8981  140.9954  167.1205 N.ar    1  UNL1       -0.2096
      9 N         141.8906  141.8367  166.3742 N.ar    1  UNL1       -0.1489
     10 C         139.0952  140.2632  165.2880 C.ar    1  UNL1        0.0223
     11 C         139.1580  139.0051  164.4735 C.ar    1  UNL1        0.0017
     12 C         138.6000  138.9844  163.0813 C.ar    1  UNL1        0.0032
     13 C         137.9793  140.2217  162.5035 C.ar    1  UNL1        0.0372
     14 C         137.9165  141.4797  163.3180 C.ar    1  UNL1        0.1469
     15 C         138.4745  141.5004  164.7102 C.ar    1  UNL1        0.0387
     16 O         137.2958  142.7171  162.7403 O.3     1  UNL1       -0.4045
     17 C         138.0470  144.0152  162.7659 C.3     1  UNL1        0.5753
     18 F         138.7983  145.3133  162.7915 F       1  UNL1       -0.1328
     19 F         137.3259  144.4077  164.0213 F       1  UNL1       -0.1328
     20 F         138.7681  143.6225  161.5106 F       1  UNL1       -0.1328
     21 N         144.0562  143.2719  166.3498 N.pl3   1  UNL1       -0.3184
     22 H         144.5850  143.9504  166.8286 H       1  UNL1        0.1482
     23 C         144.6168  142.6943  161.9224 C.3     1  UNL1        0.1154
     24 C         145.2062  141.7091  162.8878 C.3     1  UNL1        0.0312
     25 C         145.0193  141.9016  164.3637 C.3     1  UNL1        0.0220
     26 C         144.2431  143.0793  164.8741 C.3     1  UNL1        0.0706
     27 C         143.6537  144.0645  163.9086 C.3     1  UNL1        0.0220
     28 C         143.8406  143.8720  162.4328 C.3     1  UNL1        0.0312
     29 C         143.6805  142.8111  159.5018 C.3     1  UNL1        0.1740
     30 O         144.8037  142.5017  160.4467 O.3     1  UNL1       -0.3536
@<TRIPOS>BOND
     1    29    30    1
     2    23    30    1
     3    23    24    1
     4    24    25    1
     5    25    26    1
     6    26    21    1
     7    21     1    1
     8     1     2   ar
     9     2     3   ar
    10     3     4   ar
    11     4     5   ar
    12     5     6   ar
    13     6     7   ar
    14     7    10    1
    15    10    11   ar
    16    11    12   ar
    17    12    13   ar
    18    13    14   ar
    19    14    16    1
    20    16    17    1
    21    17    18    1
    22    17    19    1
    23    17    20    1
    24    14    15   ar
    25     7     8   ar
    26     8     9   ar
    27    26    27    1
    28    27    28    1
    29    28    23    1
    30     9     1   ar
    31     8     4   ar
    32    15    10   ar
    33    21    22    1
@<TRIPOS>MOLECULE
*****
 30 33 0 0 0
SMALL
GASTEIGER

@<TRIPOS>ATOM
      1 C         138.9701  141.7539  164.0617 C.ar    1  UNL1        0.1488
      2 C         137.8307  142.6873  164.3458 C.ar    1  UNL1        0.0390
      3 C         137.7683  144.0231  163.6663 C.ar    1  UNL1        0.0417
      4 C         138.8452  144.4255  162.7029 C.ar    1  UNL1        0.1640
      5 N         139.0501  145.6685  161.8885 N.ar    1  UNL1       -0.2234
      6 C         140.3161  145.5034  161.1012 C.ar    1  UNL1        0.1197
      7 C         140.8936  144.1583  161.4290 C.ar    1  UNL1        0.1037
      8 N         139.9846  143.4922  162.4188 N.ar    1  UNL1       -0.2096
      9 N         140.0470  142.1564  163.0983 N.ar    1  UNL1       -0.1489
     10 C         142.1582  143.5808  160.8657 C.ar    1  UNL1        0.0223
     11 C         142.3265  143.4493  159.3810 C.ar    1  UNL1        0.0017
     12 C         143.5911  142.8717  158.8178 C.ar    1  UNL1        0.0032
     13 C         144.6875  142.4257  159.7392 C.ar    1  UNL1        0.0372
     14 C         144.5192  142.5572  161.2239 C.ar    1  UNL1        0.1469
     15 C         143.2546  143.1348  161.7871 C.ar    1  UNL1        0.0387
     16 O         145.6156  142.1112  162.1455 O.3     1  UNL1       -0.4045
     17 C         145.3216  141.1297  163.2410 C.3     1  UNL1        0.5753
     18 F         145.0275  140.1482  164.3366 F       1  UNL1       -0.1328
     19 F         145.8684  142.0940  164.2516 F       1  UNL1       -0.1328
     20 F         144.7748  140.1655  162.2304 F       1  UNL1       -0.1328
     21 N         139.0326  140.4180  164.7412 N.pl3   1  UNL1       -0.3184
     22 H         138.4218  139.6967  164.4659 H       1  UNL1        0.1482
     23 C         142.0120  139.7077  168.0379 C.3     1  UNL1        0.1154
     24 C         142.3486  139.3242  166.6274 C.3     1  UNL1        0.0312
     25 C         141.3554  139.5610  165.5284 C.3     1  UNL1        0.0220
     26 C         140.0257  140.1813  165.8400 C.3     1  UNL1        0.0706
     27 C         139.6892  140.5648  167.2507 C.3     1  UNL1        0.0220
     28 C         140.6823  140.3280  168.3495 C.3     1  UNL1        0.0312
     29 C         142.7613  140.0391  170.5034 C.3     1  UNL1        0.1740
     30 O         143.0052  139.4709  169.1367 O.3     1  UNL1       -0.3536
@<TRIPOS>BOND
     1    29    30    1
     2    23    30    1
     3    23    24    1
     4    24    25    1
     5    25    26    1
     6    26    21    1
     7    21     1    1
     8     1     2   ar
     9     2     3   ar
    10     3     4   ar
    11     4     5   ar
    12     5     6   ar
    13     6     7   ar
    14     7    10    1
    15    10    11   ar
    16    11    12   ar
    17    12    13   ar
    18    13    14   ar
    19    14    16    1
    20    16    17    1
    21    17    18    1
    22    17    19    1
    23    17    20    1
    24    14    15   ar
    25     7     8   ar
    26     8     9   ar
    27    26    27    1
    28    27    28    1
    29    28    23    1
    30     9     1   ar
    31     8     4   ar
    32    15    10   ar
    33    21    22    1
@<TRIPOS>MOLECULE
*****
 30 33 0 0 0
SMALL
GASTEIGER

@<TRIPOS>ATOM
      1 C         139.2217  139.9188  167.7148 C.ar    1  UNL1        0.1488
      2 C         138.9682  140.2089  169.1644 C.ar    1  UNL1        0.0390
      3 C         139.9673  140.9985  169.9571 C.ar    1  UNL1        0.0417
      4 C         141.2198  141.4981  169.3000 C.ar    1  UNL1        0.1640
      5 N         142.3778  142.2956  169.8226 N.ar    1  UNL1       -0.2234
      6 C         143.3469  142.4985  168.6958 C.ar    1  UNL1        0.1197
      7 C         142.7879  141.8263  167.4769 C.ar    1  UNL1        0.1037
      8 N         141.4732  141.2080  167.8504 N.ar    1  UNL1       -0.2096
      9 N         140.4742  140.4184  167.0577 N.ar    1  UNL1       -0.1489
     10 C         143.4306  141.7804  166.1224 C.ar    1  UNL1        0.0223
     11 C         143.8782  143.0502  165.4612 C.ar    1  UNL1        0.0017
     12 C         144.5209  143.0043  164.1066 C.ar    1  UNL1        0.0032
     13 C         144.7160  141.6886  163.4132 C.ar    1  UNL1        0.0372
     14 C         144.2684  140.4188  164.0744 C.ar    1  UNL1        0.1469
     15 C         143.6257  140.4647  165.4289 C.ar    1  UNL1        0.0387
     16 O         144.4636  139.1030  163.3810 O.3     1  UNL1       -0.4045
     17 C         143.4093  138.5824  162.4496 C.3     1  UNL1        0.5753
     18 F         142.3551  138.0619  161.5180 F       1  UNL1       -0.1328
     19 F         142.6580  138.0148  163.6172 F       1  UNL1       -0.1328
     20 F         144.1607  139.1501  161.2820 F       1  UNL1       -0.1328
     21 N         138.2226  139.1292  166.9220 N.pl3   1  UNL1       -0.3184
     22 H         137.4054  138.7926  167.3558 H       1  UNL1        0.1482
     23 C         138.9607  138.2986  162.5614 C.3     1  UNL1        0.1154
     24 C         138.3451  139.5998  162.9833 C.3     1  UNL1        0.0312
     25 C         138.0990  139.8766  164.4369 C.3     1  UNL1        0.0220
     26 C         138.4686  138.8523  165.4685 C.3     1  UNL1        0.0706
     27 C         139.0842  137.5512  165.0465 C.3     1  UNL1        0.0220
     28 C         139.3303  137.2743  163.5930 C.3     1  UNL1        0.0312
     29 C         139.1711  139.1447  160.1140 C.3     1  UNL1        0.1740
     30 O         139.2067  138.0218  161.1079 O.3     1  UNL1       -0.3536
@<TRIPOS>BOND
     1    29    30    1
     2    23    30    1
     3    23    24    1
     4    24    25    1
     5    25    26    1
     6    26    21    1
     7    21     1    1
     8     1     2   ar
     9     2     3   ar
    10     3     4   ar
    11     4     5   ar
    12     5     6   ar
    13     6     7   ar
    14     7    10    1
    15    10    11   ar
    16    11    12   ar
    17    12    13   ar
    18    13    14   ar
    19    14    16    1
    20    16    17    1
    21    17    18    1
    22    17    19    1
    23    17    20    1
    24    14    15   ar
    25     7     8   ar
    26     8     9   ar
    27    26    27    1
    28    27    28    1
    29    28    23    1
    30     9     1   ar
    31     8     4   ar
    32    15    10   ar
    33    21    22    1
@<TRIPOS>MOLECULE
*****
 30 33 0 0 0
SMALL
GASTEIGER

@<TRIPOS>ATOM
      1 C         143.2320  139.7890  164.9330 C.ar    1  UNL1        0.1488
      2 C         144.6678  139.5473  164.5725 C.ar    1  UNL1        0.0390
      3 C         145.3487  140.4319  163.5707 C.ar    1  UNL1        0.0417
      4 C         144.5938  141.5583  162.9293 C.ar    1  UNL1        0.1640
      5 N         144.9969  142.5878  161.9155 N.ar    1  UNL1       -0.2234
      6 C         143.8102  143.4658  161.6495 C.ar    1  UNL1        0.1197
      7 C         142.6737  142.9790  162.4989 C.ar    1  UNL1        0.1037
      8 N         143.1580  141.8000  163.2898 N.ar    1  UNL1       -0.2096
      9 N         142.4771  140.9154  164.2917 N.ar    1  UNL1       -0.1489
     10 C         141.2950  143.5677  162.5486 C.ar    1  UNL1        0.0223
     11 C         141.1067  145.0494  162.4105 C.ar    1  UNL1        0.0017
     12 C         139.7279  145.6381  162.4602 C.ar    1  UNL1        0.0032
     13 C         138.5374  144.7452  162.6479 C.ar    1  UNL1        0.0372
     14 C         138.7257  143.2635  162.7860 C.ar    1  UNL1        0.1469
     15 C         140.1044  142.6747  162.7363 C.ar    1  UNL1        0.0387
     16 O         137.5351  142.3704  162.9738 O.3     1  UNL1       -0.4045
     17 C         137.6368  141.1602  163.8541 C.3     1  UNL1        0.5753
     18 F         137.7386  139.9499  164.7345 F       1  UNL1       -0.1328
     19 F         137.3914  140.2763  162.6673 F       1  UNL1       -0.1328
     20 F         137.8823  142.0441  165.0409 F       1  UNL1       -0.1328
     21 N         142.5510  138.9044  165.9350 N.pl3   1  UNL1       -0.3184
     22 H         142.5856  137.9260  165.8316 H       1  UNL1        0.1482
     23 C         140.3501  140.7229  169.4133 C.3     1  UNL1        0.1154
     24 C         139.6227  140.4344  168.1337 C.3     1  UNL1        0.0312
     25 C         140.3563  139.8282  166.9741 C.3     1  UNL1        0.0220
     26 C         141.8174  139.5106  167.0944 C.3     1  UNL1        0.0706
     27 C         142.5448  139.7991  168.3742 C.3     1  UNL1        0.0220
     28 C         141.8111  140.4053  169.5336 C.3     1  UNL1        0.0312
     29 C         139.6533  142.8127  170.7907 C.3     1  UNL1        0.1740
     30 O         139.6164  141.3290  170.5727 O.3     1  UNL1       -0.3536
@<TRIPOS>BOND
     1    29    30    1
     2    23    30    1
     3    23    24    1
     4    24    25    1
     5    25    26    1
     6    26    21    1
     7    21     1    1
     8     1     2   ar
     9     2     3   ar
    10     3     4   ar
    11     4     5   ar
    12     5     6   ar
    13     6     7   ar
    14     7    10    1
    15    10    11   ar
    16    11    12   ar
    17    12    13   ar
    18    13    14   ar
    19    14    16    1
    20    16    17    1
    21    17    18    1
    22    17    19    1
    23    17    20    1
    24    14    15   ar
    25     7     8   ar
    26     8     9   ar
    27    26    27    1
    28    27    28    1
    29    28    23    1
    30     9     1   ar
    31     8     4   ar
    32    15    10   ar
    33    21    22    1
@<TRIPOS>MOLECULE
*****
 30 33 0 0 0
SMALL
GASTEIGER

@<TRIPOS>ATOM
      1 C         143.7580  139.3534  164.6508 C.ar    1  UNL1        0.1488
      2 C         144.0579  138.5645  165.8908 C.ar    1  UNL1        0.0390
      3 C         143.1577  138.6743  167.0856 C.ar    1  UNL1        0.0417
      4 C         141.9576  139.5730  167.0403 C.ar    1  UNL1        0.1640
      5 N         140.8970  139.8829  168.0549 N.ar    1  UNL1       -0.2234
      6 C         139.9416  140.8634  167.4418 C.ar    1  UNL1        0.1197
      7 C         140.4117  141.1594  166.0484 C.ar    1  UNL1        0.1037
      8 N         141.6577  140.3619  165.8004 N.ar    1  UNL1       -0.2096
      9 N         142.5578  140.2521  164.6056 N.ar    1  UNL1       -0.1489
     10 C         139.7517  142.0896  165.0742 C.ar    1  UNL1        0.0223
     11 C         138.3036  141.9086  164.7276 C.ar    1  UNL1        0.0017
     12 C         137.6436  142.8388  163.7534 C.ar    1  UNL1        0.0032
     13 C         138.4317  143.9500  163.1257 C.ar    1  UNL1        0.0372
     14 C         139.8799  144.1310  163.4723 C.ar    1  UNL1        0.1469
     15 C         140.5398  143.2008  164.4465 C.ar    1  UNL1        0.0387
     16 O         140.6681  145.2423  162.8445 O.3     1  UNL1       -0.4045
     17 C         142.1673  145.1961  162.8532 C.3     1  UNL1        0.5753
     18 F         143.6667  145.1501  162.8619 F       1  UNL1       -0.1328
     19 F         142.1520  144.4521  161.5508 F       1  UNL1       -0.1328
     20 F         142.1826  145.9402  164.1557 F       1  UNL1       -0.1328
     21 N         144.6582  139.2436  163.4559 N.pl3   1  UNL1       -0.3184
     22 H         145.3577  138.5514  163.4285 H       1  UNL1        0.1482
     23 C         144.1616  142.0786  159.9966 C.3     1  UNL1        0.1154
     24 C         144.8530  142.5350  161.2470 C.3     1  UNL1        0.0312
     25 C         145.0186  141.5900  162.4002 C.3     1  UNL1        0.0220
     26 C         144.4927  140.1886  162.3028 C.3     1  UNL1        0.0706
     27 C         143.8012  139.7322  161.0524 C.3     1  UNL1        0.0220
     28 C         143.6357  140.6772  159.8993 C.3     1  UNL1        0.0312
     29 C         142.6231  143.4430  158.4088 C.3     1  UNL1        0.1740
     30 O         143.9961  143.0235  158.8436 O.3     1  UNL1       -0.3536
@<TRIPOS>BOND
     1    29    30    1
     2    23    30    1
     3    23    24    1
     4    24    25    1
     5    25    26    1
     6    26    21    1
     7    21     1    1
     8     1     2   ar
     9     2     3   ar
    10     3     4   ar
    11     4     5   ar
    12     5     6   ar
    13     6     7   ar
    14     7    10    1
    15    10    11   ar
    16    11    12   ar
    17    12    13   ar
    18    13    14   ar
    19    14    16    1
    20    16    17    1
    21    17    18    1
    22    17    19    1
    23    17    20    1
    24    14    15   ar
    25     7     8   ar
    26     8     9   ar
    27    26    27    1
    28    27    28    1
    29    28    23    1
    30     9     1   ar
    31     8     4   ar
    32    15    10   ar
    33    21    22    1
@<TRIPOS>MOLECULE
*****
 30 33 0 0 0
SMALL
GASTEIGER

@<TRIPOS>ATOM
      1 C         139.2485  139.8459  167.5771 C.ar    1  UNL1        0.1488
      2 C         139.0648  140.0452  169.0524 C.ar    1  UNL1        0.0390
      3 C         140.1036  140.7821  169.8447 C.ar    1  UNL1        0.0417
      4 C         141.3262  141.3197  169.1618 C.ar    1  UNL1        0.1640
      5 N         142.5111  142.0811  169.6778 N.ar    1  UNL1       -0.2234
      6 C         143.4271  142.3524  168.5214 C.ar    1  UNL1        0.1197
      7 C         142.8083  141.7586  167.2907 C.ar    1  UNL1        0.1037
      8 N         141.5099  141.1204  167.6865 N.ar    1  UNL1       -0.2096
      9 N         140.4711  140.3835  166.8942 N.ar    1  UNL1       -0.1489
     10 C         143.3865  141.7964  165.9071 C.ar    1  UNL1        0.0223
     11 C         144.0316  140.5713  165.3301 C.ar    1  UNL1        0.0017
     12 C         144.6097  140.6091  163.9465 C.ar    1  UNL1        0.0032
     13 C         144.5428  141.8720  163.1399 C.ar    1  UNL1        0.0372
     14 C         143.8977  143.0971  163.7169 C.ar    1  UNL1        0.1469
     15 C         143.3195  143.0593  165.1005 C.ar    1  UNL1        0.0387
     16 O         143.8307  144.3600  162.9103 O.3     1  UNL1       -0.4045
     17 C         142.5108  144.8508  162.3936 C.3     1  UNL1        0.5753
     18 F         141.1908  145.3417  161.8769 F       1  UNL1       -0.1328
     19 F         142.6563  143.9718  161.1869 F       1  UNL1       -0.1328
     20 F         142.3653  145.7298  163.6004 F       1  UNL1       -0.1328
     21 N         138.2097  139.1089  166.7848 N.pl3   1  UNL1       -0.3184
     22 H         137.4183  138.7366  167.2367 H       1  UNL1        0.1482
     23 C         138.7107  138.6001  162.3418 C.3     1  UNL1        0.1154
     24 C         139.1238  137.5000  163.2740 C.3     1  UNL1        0.0312
     25 C         138.9568  137.6696  164.7550 C.3     1  UNL1        0.0220
     26 C         138.3767  138.9393  165.3038 C.3     1  UNL1        0.0706
     27 C         137.9635  140.0395  164.3715 C.3     1  UNL1        0.0220
     28 C         138.1305  139.8698  162.8906 C.3     1  UNL1        0.0312
     29 C         139.0964  139.6309  159.9883 C.3     1  UNL1        0.1740
     30 O         138.8777  138.4305  160.8608 O.3     1  UNL1       -0.3536
@<TRIPOS>BOND
     1    29    30    1
     2    23    30    1
     3    23    24    1
     4    24    25    1
     5    25    26    1
     6    26    21    1
     7    21     1    1
     8     1     2   ar
     9     2     3   ar
    10     3     4   ar
    11     4     5   ar
    12     5     6   ar
    13     6     7   ar
    14     7    10    1
    15    10    11   ar
    16    11    12   ar
    17    12    13   ar
    18    13    14   ar
    19    14    16    1
    20    16    17    1
    21    17    18    1
    22    17    19    1
    23    17    20    1
    24    14    15   ar
    25     7     8   ar
    26     8     9   ar
    27    26    27    1
    28    27    28    1
    29    28    23    1
    30     9     1   ar
    31     8     4   ar
    32    15    10   ar
    33    21    22    1
@<TRIPOS>MOLECULE
*****
 30 33 0 0 0
SMALL
GASTEIGER

@<TRIPOS>ATOM
      1 C         139.0697  138.3621  164.7576 C.ar    1  UNL1        0.1488
      2 C         138.1931  138.3400  165.9745 C.ar    1  UNL1        0.0390
      3 C         138.6014  139.0918  167.2066 C.ar    1  UNL1        0.0417
      4 C         139.8863  139.8657  167.2217 C.ar    1  UNL1        0.1640
      5 N         140.5451  140.6966  168.2827 N.ar    1  UNL1       -0.2234
      6 C         141.8289  141.2321  167.7215 C.ar    1  UNL1        0.1197
      7 C         141.9635  140.7322  166.3136 C.ar    1  UNL1        0.1037
      8 N         140.7629  139.8877  166.0048 N.ar    1  UNL1       -0.2096
      9 N         140.3546  139.1359  164.7727 N.ar    1  UNL1       -0.1489
     10 C         143.0993  141.0254  165.3787 C.ar    1  UNL1        0.0223
     11 C         144.1014  139.9564  165.0577 C.ar    1  UNL1        0.0017
     12 C         145.2372  140.2495  164.1228 C.ar    1  UNL1        0.0032
     13 C         145.3709  141.6116  163.5089 C.ar    1  UNL1        0.0372
     14 C         144.3688  142.6805  163.8299 C.ar    1  UNL1        0.1469
     15 C         143.2330  142.3874  164.7648 C.ar    1  UNL1        0.0387
     16 O         144.5024  144.0427  163.2160 O.3     1  UNL1       -0.4045
     17 C         143.3946  145.0433  163.3624 C.3     1  UNL1        0.5753
     18 F         142.2868  146.0440  163.5090 F       1  UNL1       -0.1328
     19 F         142.7362  144.4946  162.1314 F       1  UNL1       -0.1328
     20 F         144.0531  145.5920  164.5935 F       1  UNL1       -0.1328
     21 N         138.6615  137.6103  163.5254 N.pl3   1  UNL1       -0.3184
     22 H         138.3848  136.6678  163.5928 H       1  UNL1        0.1482
     23 C         138.7011  139.6626  159.5209 C.3     1  UNL1        0.1154
     24 C         139.7650  138.6615  159.8611 C.3     1  UNL1        0.0312
     25 C         139.7519  137.9774  161.1960 C.3     1  UNL1        0.0220
     26 C         138.6747  138.2944  162.1906 C.3     1  UNL1        0.0706
     27 C         137.6107  139.2955  161.8503 C.3     1  UNL1        0.0220
     28 C         137.6239  139.9796  160.5155 C.3     1  UNL1        0.0312
     29 C         139.7735  140.0072  157.1797 C.3     1  UNL1        0.1740
     30 O         138.7143  140.3467  158.1861 O.3     1  UNL1       -0.3536
@<TRIPOS>BOND
     1    29    30    1
     2    23    30    1
     3    23    24    1
     4    24    25    1
     5    25    26    1
     6    26    21    1
     7    21     1    1
     8     1     2   ar
     9     2     3   ar
    10     3     4   ar
    11     4     5   ar
    12     5     6   ar
    13     6     7   ar
    14     7    10    1
    15    10    11   ar
    16    11    12   ar
    17    12    13   ar
    18    13    14   ar
    19    14    16    1
    20    16    17    1
    21    17    18    1
    22    17    19    1
    23    17    20    1
    24    14    15   ar
    25     7     8   ar
    26     8     9   ar
    27    26    27    1
    28    27    28    1
    29    28    23    1
    30     9     1   ar
    31     8     4   ar
    32    15    10   ar
    33    21    22    1
@<TRIPOS>MOLECULE
*****
 30 33 0 0 0
SMALL
GASTEIGER

@<TRIPOS>ATOM
      1 C         143.5391  139.6610  164.0934 C.ar    1  UNL1        0.1488
      2 C         144.9772  140.0741  164.1994 C.ar    1  UNL1        0.0390
      3 C         145.5136  141.1576  163.3116 C.ar    1  UNL1        0.0417
      4 C         144.6120  141.8281  162.3179 C.ar    1  UNL1        0.1640
      5 N         144.8560  142.9189  161.3175 N.ar    1  UNL1       -0.2234
      6 C         143.5687  143.1800  160.5933 C.ar    1  UNL1        0.1197
      7 C         142.5291  142.2505  161.1460 C.ar    1  UNL1        0.1037
      8 N         143.1740  141.4151  162.2119 N.ar    1  UNL1       -0.2096
      9 N         142.6375  140.3315  163.0996 N.ar    1  UNL1       -0.1489
     10 C         141.0963  142.1706  160.7095 C.ar    1  UNL1        0.0223
     11 C         140.7577  142.1433  159.2485 C.ar    1  UNL1        0.0017
     12 C         139.3248  142.0634  158.8120 C.ar    1  UNL1        0.0032
     13 C         138.2305  142.0108  159.8365 C.ar    1  UNL1        0.0372
     14 C         138.5691  142.0381  161.2975 C.ar    1  UNL1        0.1469
     15 C         140.0019  142.1180  161.7340 C.ar    1  UNL1        0.0387
     16 O         137.4747  141.9855  162.3221 O.3     1  UNL1       -0.4045
     17 C         137.5698  142.8204  163.5646 C.3     1  UNL1        0.5753
     18 F         137.6649  143.6555  164.8071 F       1  UNL1       -0.1328
     19 F         137.7623  141.5790  164.3842 F       1  UNL1       -0.1328
     20 F         137.3773  144.0619  162.7449 F       1  UNL1       -0.1328
     21 N         143.0026  138.5775  164.9811 N.pl3   1  UNL1       -0.3184
     22 H         143.5915  137.8454  165.2752 H       1  UNL1        0.1482
     23 C         138.7013  138.6731  166.3001 C.3     1  UNL1        0.1154
     24 C         139.1409  137.7012  165.2456 C.3     1  UNL1        0.0312
     25 C         140.5747  137.6693  164.8059 C.3     1  UNL1        0.0220
     26 C         141.5689  138.6093  165.4208 C.3     1  UNL1        0.0706
     27 C         141.1292  139.5812  166.4754 C.3     1  UNL1        0.0220
     28 C         139.6954  139.6131  166.9151 C.3     1  UNL1        0.0312
     29 C         136.7925  137.7751  167.8167 C.3     1  UNL1        0.1740
     30 O         137.2676  138.7049  166.7398 O.3     1  UNL1       -0.3536
@<TRIPOS>BOND
     1    29    30    1
     2    23    30    1
     3    23    24    1
     4    24    25    1
     5    25    26    1
     6    26    21    1
     7    21     1    1
     8     1     2   ar
     9     2     3   ar
    10     3     4   ar
    11     4     5   ar
    12     5     6   ar
    13     6     7   ar
    14     7    10    1
    15    10    11   ar
    16    11    12   ar
    17    12    13   ar
    18    13    14   ar
    19    14    16    1
    20    16    17    1
    21    17    18    1
    22    17    19    1
    23    17    20    1
    24    14    15   ar
    25     7     8   ar
    26     8     9   ar
    27    26    27    1
    28    27    28    1
    29    28    23    1
    30     9     1   ar
    31     8     4   ar
    32    15    10   ar
    33    21    22    1
@<TRIPOS>MOLECULE
*****
 30 33 0 0 0
SMALL
GASTEIGER

@<TRIPOS>ATOM
      1 C         142.3828  139.0982  166.3288 C.ar    1  UNL1        0.1488
      2 C         142.9152  139.0269  167.7293 C.ar    1  UNL1        0.0390
      3 C         142.5499  140.0873  168.7253 C.ar    1  UNL1        0.0417
      4 C         141.6522  141.2189  168.3208 C.ar    1  UNL1        0.1640
      5 N         141.1233  142.4006  169.0785 N.ar    1  UNL1       -0.2234
      6 C         140.2640  143.2021  168.1463 C.ar    1  UNL1        0.1197
      7 C         140.2618  142.5158  166.8125 C.ar    1  UNL1        0.1037
      8 N         141.1198  141.2902  166.9204 N.ar    1  UNL1       -0.2096
      9 N         141.4850  140.2298  165.9243 N.ar    1  UNL1       -0.1489
     10 C         139.5301  142.9746  165.5860 C.ar    1  UNL1        0.0223
     11 C         139.6641  144.3939  165.1197 C.ar    1  UNL1        0.0017
     12 C         138.9324  144.8527  163.8933 C.ar    1  UNL1        0.0032
     13 C         138.0667  143.8922  163.1332 C.ar    1  UNL1        0.0372
     14 C         137.9326  142.4728  163.5995 C.ar    1  UNL1        0.1469
     15 C         138.6643  142.0141  164.8259 C.ar    1  UNL1        0.0387
     16 O         137.0668  141.5122  162.8393 O.3     1  UNL1       -0.4045
     17 C         137.6772  140.5998  161.8171 C.3     1  UNL1        0.5753
     18 F         138.2877  139.6874  160.7948 F       1  UNL1       -0.1328
     19 F         137.6362  139.4691  162.8019 F       1  UNL1       -0.1328
     20 F         137.7182  141.7306  160.8323 F       1  UNL1       -0.1328
     21 N         142.7480  138.0377  165.3327 N.pl3   1  UNL1       -0.3184
     22 H         143.2769  137.2572  165.6162 H       1  UNL1        0.1482
     23 C         141.4264  138.4240  161.0485 C.3     1  UNL1        0.1154
     24 C         140.5387  137.7450  162.0489 C.3     1  UNL1        0.0312
     25 C         140.9792  137.6162  163.4770 C.3     1  UNL1        0.0220
     26 C         142.3075  138.1665  163.9047 C.3     1  UNL1        0.0706
     27 C         143.1952  138.8455  162.9042 C.3     1  UNL1        0.0220
     28 C         142.7547  138.9743  161.4762 C.3     1  UNL1        0.0312
     29 C         141.9699  138.3350  158.5095 C.3     1  UNL1        0.1740
     30 O         140.9859  138.5528  159.6205 O.3     1  UNL1       -0.3536
@<TRIPOS>BOND
     1    29    30    1
     2    23    30    1
     3    23    24    1
     4    24    25    1
     5    25    26    1
     6    26    21    1
     7    21     1    1
     8     1     2   ar
     9     2     3   ar
    10     3     4   ar
    11     4     5   ar
    12     5     6   ar
    13     6     7   ar
    14     7    10    1
    15    10    11   ar
    16    11    12   ar
    17    12    13   ar
    18    13    14   ar
    19    14    16    1
    20    16    17    1
    21    17    18    1
    22    17    19    1
    23    17    20    1
    24    14    15   ar
    25     7     8   ar
    26     8     9   ar
    27    26    27    1
    28    27    28    1
    29    28    23    1
    30     9     1   ar
    31     8     4   ar
    32    15    10   ar
    33    21    22    1
