@<TRIPOS>MOLECULE
*****
 36 39 0 0 0
SMALL
GASTEIGER

@<TRIPOS>ATOM
      1 C         142.9990  138.4957  164.6127 C.ar    1  UNL1        0.1377
      2 C         144.0621  138.9830  163.6732 C.ar    1  UNL1        0.1397
      3 N         143.8591  138.8767  162.1909 N.ar    1  UNL1       -0.2027
      4 C         142.5931  138.2832  161.6478 C.ar    1  UNL1        0.2367
      5 N         141.5300  137.7960  162.5872 N.ar    1  UNL1       -0.1828
      6 C         141.7329  137.9022  164.0697 C.ar    1  UNL1        0.2339
      7 C         142.5016  139.5811  168.3975 C.3     1  UNL1        0.1109
      8 N         142.2987  139.4748  166.9151 N.am    1  UNL1       -0.2990
      9 C         143.2020  138.6020  166.0950 C.2     1  UNL1        0.2532
     10 O         144.3082  137.8356  166.7574 O.2     1  UNL1       -0.2699
     11 H         141.5726  139.9778  166.4803 H       1  UNL1        0.1498
     12 N         145.3282  139.5765  164.2162 N.pl3   1  UNL1       -0.3178
     13 H         145.8982  139.0501  164.8223 H       1  UNL1        0.1482
     14 C         145.7257  140.9719  163.8359 C.3     1  UNL1        0.0881
     15 C         144.6723  142.0098  163.5851 C.3     1  UNL1        0.0196
     16 C         144.3123  142.3886  162.1790 C.3     1  UNL1        0.0017
     17 C         143.2589  143.4265  161.9282 C.3     1  UNL1        0.0001
     18 C         142.5654  144.0858  163.0833 C.3     1  UNL1        0.0000
     19 C         141.9567  144.7052  161.8602 C.3     1  UNL1        0.0000
     20 C         141.0756  145.5537  162.7285 C.3     1  UNL1        0.0000
     21 C         141.6843  144.9343  163.9516 C.3     1  UNL1        0.0000
     22 C         142.9254  143.7070  164.4893 C.3     1  UNL1        0.0001
     23 C         143.9788  142.6691  164.7402 C.3     1  UNL1        0.0017
     24 C         142.3901  138.1769  160.1655 C.1     1  UNL1        0.1401
     25 N         142.1871  138.0706  158.6830 N.1     1  UNL1       -0.1876
     26 O         140.6699  137.4150  165.0090 O.3     1  UNL1       -0.4600
     27 C         139.2600  137.9070  164.8663 C.3     1  UNL1        0.2071
     28 C         138.9892  139.3750  164.7192 C.3     1  UNL1        0.0466
     29 C         138.2501  139.8846  163.5175 C.3     1  UNL1        0.0211
     30 C         137.9794  141.3526  163.3705 C.3     1  UNL1        0.0722
     31 N         138.4477  142.3110  164.4251 N.3     1  UNL1       -0.2740
     32 C         139.1868  141.8014  165.6267 C.3     1  UNL1        0.0722
     33 C         139.4576  140.3334  165.7738 C.3     1  UNL1        0.0211
     34 C         138.1769  143.7790  164.2780 C.3     1  UNL1        0.0576
     35 C         138.4086  144.7041  165.4357 C.3     1  UNL1        0.0173
     36 C         137.6744  144.3219  162.9731 C.3     1  UNL1        0.0173
@<TRIPOS>BOND
     1     7     8    1
     2     8     9   am
     3     9    10    2
     4     9     1    1
     5     1     2   ar
     6     2    12    1
     7    12    14    1
     8    14    15    1
     9    15    16    1
    10    16    17    1
    11    17    18    1
    12    18    19    1
    13    19    20    1
    14    20    21    1
    15    18    22    1
    16    22    23    1
    17     2     3   ar
    18     3     4   ar
    19     4    24    1
    20    24    25    3
    21     4     5   ar
    22     5     6   ar
    23     6    26    1
    24    26    27    1
    25    27    28    1
    26    28    29    1
    27    29    30    1
    28    30    31    1
    29    31    34    1
    30    34    35    1
    31    34    36    1
    32    31    32    1
    33    32    33    1
    34     6     1   ar
    35    33    28    1
    36    23    15    1
    37    21    18    1
    38     8    11    1
    39    12    13    1
@<TRIPOS>MOLECULE
*****
 36 39 0 0 0
SMALL
GASTEIGER

@<TRIPOS>ATOM
      1 C         144.4518  143.0201  164.0108 C.ar    1  UNL1        0.1377
      2 C         143.9544  144.1038  163.1006 C.ar    1  UNL1        0.1397
      3 N         144.0319  143.9281  161.6130 N.ar    1  UNL1       -0.2027
      4 C         144.6067  142.6687  161.0355 C.ar    1  UNL1        0.2367
      5 N         145.1041  141.5850  161.9456 N.ar    1  UNL1       -0.1828
      6 C         145.0266  141.7607  163.4333 C.ar    1  UNL1        0.2339
      7 C         143.3894  142.4959  167.7985 C.3     1  UNL1        0.1109
      8 N         143.4669  142.3202  166.3109 N.am    1  UNL1       -0.2990
      9 C         144.3743  143.1958  165.4984 C.2     1  UNL1        0.2532
     10 O         145.2041  144.2472  166.1737 O.2     1  UNL1       -0.2699
     11 H         142.9223  141.6301  165.8677 H       1  UNL1        0.1498
     12 N         143.3795  145.3631  163.6782 N.pl3   1  UNL1       -0.3178
     13 H         143.9512  145.9705  164.2012 H       1  UNL1        0.1482
     14 C         141.9338  145.6971  163.4588 C.3     1  UNL1        0.0881
     15 C         140.9021  144.6084  163.4725 C.3     1  UNL1        0.0196
     16 C         140.1837  144.2399  162.2084 C.3     1  UNL1        0.0017
     17 C         139.1520  143.1512  162.2221 C.3     1  UNL1        0.0001
     18 C         138.8386  142.4309  163.4999 C.3     1  UNL1        0.0000
     19 C         137.9437  141.8046  162.4718 C.3     1  UNL1        0.0000
     20 C         137.3795  140.8911  163.5193 C.3     1  UNL1        0.0000
     21 C         138.2744  141.5173  164.5475 C.3     1  UNL1        0.0000
     22 C         139.5570  142.7993  164.7641 C.3     1  UNL1        0.0001
     23 C         140.5887  143.8881  164.7504 C.3     1  UNL1        0.0017
     24 C         144.6842  142.4930  159.5479 C.1     1  UNL1        0.1401
     25 N         144.7617  142.3173  158.0601 N.1     1  UNL1       -0.1876
     26 O         145.5240  140.6771  164.3434 O.3     1  UNL1       -0.4600
     27 C         145.1078  139.2545  164.1131 C.3     1  UNL1        0.2071
     28 C         143.6526  138.8902  164.1083 C.3     1  UNL1        0.0466
     29 C         143.0033  138.4126  162.8433 C.3     1  UNL1        0.0211
     30 C         141.5482  138.0483  162.8386 C.3     1  UNL1        0.0722
     31 N         140.7425  138.1617  164.0987 N.3     1  UNL1       -0.2740
     32 C         141.3919  138.6393  165.3637 C.3     1  UNL1        0.0722
     33 C         142.8469  139.0036  165.3684 C.3     1  UNL1        0.0211
     34 C         139.2874  137.7974  164.0939 C.3     1  UNL1        0.0576
     35 C         138.5591  137.6355  162.7926 C.3     1  UNL1        0.0173
     36 C         138.5606  137.5951  165.3904 C.3     1  UNL1        0.0173
@<TRIPOS>BOND
     1     7     8    1
     2     8     9   am
     3     9    10    2
     4     9     1    1
     5     1     2   ar
     6     2    12    1
     7    12    14    1
     8    14    15    1
     9    15    16    1
    10    16    17    1
    11    17    18    1
    12    18    19    1
    13    19    20    1
    14    20    21    1
    15    18    22    1
    16    22    23    1
    17     2     3   ar
    18     3     4   ar
    19     4    24    1
    20    24    25    3
    21     4     5   ar
    22     5     6   ar
    23     6    26    1
    24    26    27    1
    25    27    28    1
    26    28    29    1
    27    29    30    1
    28    30    31    1
    29    31    34    1
    30    34    35    1
    31    34    36    1
    32    31    32    1
    33    32    33    1
    34     6     1   ar
    35    33    28    1
    36    23    15    1
    37    21    18    1
    38     8    11    1
    39    12    13    1
@<TRIPOS>MOLECULE
*****
 36 39 0 0 0
SMALL
GASTEIGER

@<TRIPOS>ATOM
      1 C         140.6381  144.1926  161.8818 C.ar    1  UNL1        0.1377
      2 C         140.2441  143.4853  160.6190 C.ar    1  UNL1        0.1397
      3 N         141.2979  143.0398  159.6489 N.ar    1  UNL1       -0.2027
      4 C         142.7456  143.3017  159.9415 C.ar    1  UNL1        0.2367
      5 N         143.1395  144.0091  161.2042 N.ar    1  UNL1       -0.1828
      6 C         142.0857  144.4546  162.1744 C.ar    1  UNL1        0.2339
      7 C         138.7491  144.9149  165.2965 C.3     1  UNL1        0.1109
      8 N         139.8028  144.4695  164.3264 N.am    1  UNL1       -0.2990
      9 C         139.5843  144.6381  162.8519 C.2     1  UNL1        0.2532
     10 O         138.3120  145.2521  162.3477 O.2     1  UNL1       -0.2699
     11 H         140.6378  144.0665  164.6573 H       1  UNL1        0.1498
     12 N         138.7965  143.2233  160.3265 N.pl3   1  UNL1       -0.3178
     13 H         138.1917  143.9733  160.1239 H       1  UNL1        0.1482
     14 C         138.2702  141.8188  160.3425 C.3     1  UNL1        0.0881
     15 C         138.3167  141.0148  161.6079 C.3     1  UNL1        0.0196
     16 C         138.7122  139.5686  161.5636 C.3     1  UNL1        0.0017
     17 C         138.7587  138.7646  162.8291 C.3     1  UNL1        0.0001
     18 C         138.4097  139.4068  164.1389 C.3     1  UNL1        0.0000
     19 C         138.7465  137.9857  164.4809 C.3     1  UNL1        0.0000
     20 C         138.4754  138.2698  165.9286 C.3     1  UNL1        0.0000
     21 C         138.1386  139.6910  165.5866 C.3     1  UNL1        0.0000
     22 C         138.0142  140.8531  164.1832 C.3     1  UNL1        0.0001
     23 C         137.9677  141.6570  162.9178 C.3     1  UNL1        0.0017
     24 C         143.7993  142.8563  158.9714 C.1     1  UNL1        0.1401
     25 N         144.8531  142.4108  158.0013 N.1     1  UNL1       -0.1876
     26 O         142.4797  145.1619  163.4371 O.3     1  UNL1       -0.4600
     27 C         143.4530  144.5226  164.3825 C.3     1  UNL1        0.2071
     28 C         143.3639  143.0532  164.6706 C.3     1  UNL1        0.0466
     29 C         144.4116  142.1200  164.1402 C.3     1  UNL1        0.0211
     30 C         144.3224  140.6506  164.4283 C.3     1  UNL1        0.0722
     31 N         143.1854  140.1145  165.2468 N.3     1  UNL1       -0.2740
     32 C         142.1377  141.0477  165.7771 C.3     1  UNL1        0.0722
     33 C         142.2269  142.5170  165.4890 C.3     1  UNL1        0.0211
     34 C         143.0962  138.6451  165.5349 C.3     1  UNL1        0.0576
     35 C         143.9654  138.0343  166.5938 C.3     1  UNL1        0.0173
     36 C         142.1378  137.7865  164.7640 C.3     1  UNL1        0.0173
@<TRIPOS>BOND
     1     7     8    1
     2     8     9   am
     3     9    10    2
     4     9     1    1
     5     1     2   ar
     6     2    12    1
     7    12    14    1
     8    14    15    1
     9    15    16    1
    10    16    17    1
    11    17    18    1
    12    18    19    1
    13    19    20    1
    14    20    21    1
    15    18    22    1
    16    22    23    1
    17     2     3   ar
    18     3     4   ar
    19     4    24    1
    20    24    25    3
    21     4     5   ar
    22     5     6   ar
    23     6    26    1
    24    26    27    1
    25    27    28    1
    26    28    29    1
    27    29    30    1
    28    30    31    1
    29    31    34    1
    30    34    35    1
    31    34    36    1
    32    31    32    1
    33    32    33    1
    34     6     1   ar
    35    33    28    1
    36    23    15    1
    37    21    18    1
    38     8    11    1
    39    12    13    1
@<TRIPOS>MOLECULE
*****
 36 39 0 0 0
SMALL
GASTEIGER

@<TRIPOS>ATOM
      1 C         141.1890  144.2849  161.2378 C.ar    1  UNL1        0.1377
      2 C         141.9091  144.7123  162.4824 C.ar    1  UNL1        0.1397
      3 N         141.1387  144.9731  163.7426 N.ar    1  UNL1       -0.2027
      4 C         139.6480  144.8064  163.7585 C.ar    1  UNL1        0.2367
      5 N         138.9279  144.3790  162.5141 N.ar    1  UNL1       -0.1828
      6 C         139.6984  144.1182  161.2537 C.ar    1  UNL1        0.2339
      7 C         142.5046  144.6233  157.5090 C.3     1  UNL1        0.1109
      8 N         141.7342  144.8840  158.7693 N.am    1  UNL1       -0.2990
      9 C         141.9595  144.0242  159.9776 C.2     1  UNL1        0.2532
     10 O         142.9552  142.9036  159.9255 O.2     1  UNL1       -0.2699
     11 H         141.0806  145.6195  158.8034 H       1  UNL1        0.1498
     12 N         143.3998  144.8790  162.4665 N.pl3   1  UNL1       -0.3178
     13 H         143.7970  145.7280  162.1654 H       1  UNL1        0.1482
     14 C         144.2852  143.7522  162.9094 C.3     1  UNL1        0.0881
     15 C         143.8336  142.8280  164.0012 C.3     1  UNL1        0.0196
     16 C         143.8175  143.3004  165.4248 C.3     1  UNL1        0.0017
     17 C         143.3659  142.3763  166.5166 C.3     1  UNL1        0.0001
     18 C         142.9303  140.9798  166.1848 C.3     1  UNL1        0.0000
     19 C         142.7822  141.0893  167.6736 C.3     1  UNL1        0.0000
     20 C         142.2916  139.6729  167.7290 C.3     1  UNL1        0.0000
     21 C         142.4396  139.5634  166.2403 C.3     1  UNL1        0.0000
     22 C         142.9463  140.5075  164.7613 C.3     1  UNL1        0.0001
     23 C         143.3980  141.4316  163.6695 C.3     1  UNL1        0.0017
     24 C         138.8776  145.0671  165.0188 C.1     1  UNL1        0.1401
     25 N         138.1070  145.3278  166.2791 N.1     1  UNL1       -0.1876
     26 O         138.9782  143.6908  160.0093 O.3     1  UNL1       -0.4600
     27 C         138.8028  142.2319  159.7078 C.3     1  UNL1        0.2071
     28 C         139.0662  141.2090  160.7729 C.3     1  UNL1        0.0466
     29 C         137.9794  140.8316  161.7354 C.3     1  UNL1        0.0211
     30 C         138.2428  139.8087  162.8005 C.3     1  UNL1        0.0722
     31 N         139.5930  139.1634  162.9030 N.3     1  UNL1       -0.2740
     32 C         140.6798  139.5408  161.9405 C.3     1  UNL1        0.0722
     33 C         140.4163  140.5637  160.8755 C.3     1  UNL1        0.0211
     34 C         139.8564  138.1405  163.9681 C.3     1  UNL1        0.0576
     35 C         140.9889  137.1694  163.8118 C.3     1  UNL1        0.0173
     36 C         138.9872  138.0887  165.1896 C.3     1  UNL1        0.0173
@<TRIPOS>BOND
     1     7     8    1
     2     8     9   am
     3     9    10    2
     4     9     1    1
     5     1     2   ar
     6     2    12    1
     7    12    14    1
     8    14    15    1
     9    15    16    1
    10    16    17    1
    11    17    18    1
    12    18    19    1
    13    19    20    1
    14    20    21    1
    15    18    22    1
    16    22    23    1
    17     2     3   ar
    18     3     4   ar
    19     4    24    1
    20    24    25    3
    21     4     5   ar
    22     5     6   ar
    23     6    26    1
    24    26    27    1
    25    27    28    1
    26    28    29    1
    27    29    30    1
    28    30    31    1
    29    31    34    1
    30    34    35    1
    31    34    36    1
    32    31    32    1
    33    32    33    1
    34     6     1   ar
    35    33    28    1
    36    23    15    1
    37    21    18    1
    38     8    11    1
    39    12    13    1
@<TRIPOS>MOLECULE
*****
 36 39 0 0 0
SMALL
GASTEIGER

@<TRIPOS>ATOM
      1 C         143.0508  138.6820  164.4481 C.ar    1  UNL1        0.1377
      2 C         141.9340  137.8815  163.8463 C.ar    1  UNL1        0.1397
      3 N         141.8874  137.6552  162.3642 N.ar    1  UNL1       -0.2027
      4 C         142.9576  138.2294  161.4839 C.ar    1  UNL1        0.2367
      5 N         144.0744  139.0298  162.0856 N.ar    1  UNL1       -0.1828
      6 C         144.1210  139.2561  163.5677 C.ar    1  UNL1        0.2339
      7 C         142.3176  140.2228  168.0311 C.3     1  UNL1        0.1109
      8 N         142.2710  139.9965  166.5490 N.am    1  UNL1       -0.2990
      9 C         143.0973  138.9083  165.9301 C.2     1  UNL1        0.2532
     10 O         143.9702  138.0463  166.7934 O.2     1  UNL1       -0.2699
     11 H         141.6981  140.5623  165.9825 H       1  UNL1        0.1498
     12 N         140.8638  137.3073  164.7266 N.pl3   1  UNL1       -0.3178
     13 H         141.1063  136.7096  165.4703 H       1  UNL1        0.1482
     14 C         139.4241  137.6439  164.4739 C.3     1  UNL1        0.0881
     15 C         139.0191  139.0663  164.2237 C.3     1  UNL1        0.0196
     16 C         138.6025  139.4967  162.8485 C.3     1  UNL1        0.0017
     17 C         138.1975  140.9192  162.5983 C.3     1  UNL1        0.0001
     18 C         138.2092  141.9113  163.7233 C.3     1  UNL1        0.0000
     19 C         137.7480  142.6878  162.5256 C.3     1  UNL1        0.0000
     20 C         137.6365  143.9230  163.3694 C.3     1  UNL1        0.0000
     21 C         138.0978  143.1465  164.5671 C.3     1  UNL1        0.0000
     22 C         138.6259  141.4809  165.0984 C.3     1  UNL1        0.0001
     23 C         139.0309  140.0584  165.3486 C.3     1  UNL1        0.0017
     24 C         142.9111  138.0031  160.0018 C.1     1  UNL1        0.1401
     25 N         142.8646  137.7767  158.5196 N.1     1  UNL1       -0.1876
     26 O         145.2377  140.0566  164.1694 O.3     1  UNL1       -0.4600
     27 C         145.1031  141.5439  164.3104 C.3     1  UNL1        0.2071
     28 C         144.0313  142.2747  163.5572 C.3     1  UNL1        0.0466
     29 C         144.2723  142.7090  162.1419 C.3     1  UNL1        0.0211
     30 C         143.2005  143.4397  161.3888 C.3     1  UNL1        0.0722
     31 N         141.8876  143.7361  162.0511 N.3     1  UNL1       -0.2740
     32 C         141.6466  143.3018  163.4664 C.3     1  UNL1        0.0722
     33 C         142.7184  142.5711  164.2195 C.3     1  UNL1        0.0211
     34 C         140.8158  144.4669  161.2979 C.3     1  UNL1        0.0576
     35 C         140.3154  145.7891  161.7992 C.3     1  UNL1        0.0173
     36 C         140.2444  143.8755  160.0434 C.3     1  UNL1        0.0173
@<TRIPOS>BOND
     1     7     8    1
     2     8     9   am
     3     9    10    2
     4     9     1    1
     5     1     2   ar
     6     2    12    1
     7    12    14    1
     8    14    15    1
     9    15    16    1
    10    16    17    1
    11    17    18    1
    12    18    19    1
    13    19    20    1
    14    20    21    1
    15    18    22    1
    16    22    23    1
    17     2     3   ar
    18     3     4   ar
    19     4    24    1
    20    24    25    3
    21     4     5   ar
    22     5     6   ar
    23     6    26    1
    24    26    27    1
    25    27    28    1
    26    28    29    1
    27    29    30    1
    28    30    31    1
    29    31    34    1
    30    34    35    1
    31    34    36    1
    32    31    32    1
    33    32    33    1
    34     6     1   ar
    35    33    28    1
    36    23    15    1
    37    21    18    1
    38     8    11    1
    39    12    13    1
@<TRIPOS>MOLECULE
*****
 36 39 0 0 0
SMALL
GASTEIGER

@<TRIPOS>ATOM
      1 C         140.8261  144.2727  161.4989 C.ar    1  UNL1        0.1377
      2 C         142.2751  144.4601  161.8385 C.ar    1  UNL1        0.1397
      3 N         143.3355  143.9360  160.9161 N.ar    1  UNL1       -0.2027
      4 C         142.9469  143.2244  159.6541 C.ar    1  UNL1        0.2367
      5 N         141.4980  143.0370  159.3145 N.ar    1  UNL1       -0.1828
      6 C         140.4375  143.5611  160.2369 C.ar    1  UNL1        0.2339
      7 C         138.5006  144.6875  164.6879 C.3     1  UNL1        0.1109
      8 N         139.5610  144.1633  163.7656 N.am    1  UNL1       -0.2990
      9 C         139.7657  144.7968  162.4213 C.2     1  UNL1        0.2532
     10 O         138.9101  145.9544  161.9996 O.2     1  UNL1       -0.2699
     11 H         140.1225  143.4036  164.0424 H       1  UNL1        0.1498
     12 N         142.6637  145.1717  163.1005 N.pl3   1  UNL1       -0.3178
     13 H         142.2207  146.0159  163.3460 H       1  UNL1        0.1482
     14 C         143.7272  144.5969  163.9886 C.3     1  UNL1        0.0881
     15 C         143.6363  143.1695  164.4404 C.3     1  UNL1        0.0196
     16 C         144.6144  142.1559  163.9247 C.3     1  UNL1        0.0017
     17 C         144.5236  140.7285  164.3766 C.3     1  UNL1        0.0001
     18 C         143.4547  140.3146  165.3441 C.3     1  UNL1        0.0000
     19 C         144.2262  139.0604  165.0580 C.3     1  UNL1        0.0000
     20 C         143.3262  138.2958  165.9831 C.3     1  UNL1        0.0000
     21 C         142.5547  139.5501  166.2691 C.3     1  UNL1        0.0000
     22 C         142.4766  141.3282  165.8598 C.3     1  UNL1        0.0001
     23 C         142.5674  142.7557  165.4079 C.3     1  UNL1        0.0017
     24 C         144.0073  142.7003  158.7317 C.1     1  UNL1        0.1401
     25 N         145.0677  142.1762  157.8093 N.1     1  UNL1       -0.1876
     26 O         138.9886  143.3737  159.8973 O.3     1  UNL1       -0.4600
     27 C         138.3741  142.0068  159.9609 C.3     1  UNL1        0.2071
     28 C         138.5066  141.1821  161.2069 C.3     1  UNL1        0.0466
     29 C         137.6760  141.5066  162.4129 C.3     1  UNL1        0.0211
     30 C         137.8086  140.6819  163.6588 C.3     1  UNL1        0.0722
     31 N         138.7718  139.5328  163.6986 N.3     1  UNL1       -0.2740
     32 C         139.6025  139.2083  162.4926 C.3     1  UNL1        0.0722
     33 C         139.4699  140.0330  161.2467 C.3     1  UNL1        0.0211
     34 C         138.9044  138.7081  164.9446 C.3     1  UNL1        0.0576
     35 C         139.7560  137.4733  164.9397 C.3     1  UNL1        0.0173
     36 C         138.1853  139.1182  166.1955 C.3     1  UNL1        0.0173
@<TRIPOS>BOND
     1     7     8    1
     2     8     9   am
     3     9    10    2
     4     9     1    1
     5     1     2   ar
     6     2    12    1
     7    12    14    1
     8    14    15    1
     9    15    16    1
    10    16    17    1
    11    17    18    1
    12    18    19    1
    13    19    20    1
    14    20    21    1
    15    18    22    1
    16    22    23    1
    17     2     3   ar
    18     3     4   ar
    19     4    24    1
    20    24    25    3
    21     4     5   ar
    22     5     6   ar
    23     6    26    1
    24    26    27    1
    25    27    28    1
    26    28    29    1
    27    29    30    1
    28    30    31    1
    29    31    34    1
    30    34    35    1
    31    34    36    1
    32    31    32    1
    33    32    33    1
    34     6     1   ar
    35    33    28    1
    36    23    15    1
    37    21    18    1
    38     8    11    1
    39    12    13    1
@<TRIPOS>MOLECULE
*****
 36 39 0 0 0
SMALL
GASTEIGER

@<TRIPOS>ATOM
      1 C         140.8690  143.7776  161.2192 C.ar    1  UNL1        0.1377
      2 C         139.4212  143.4523  161.4390 C.ar    1  UNL1        0.1397
      3 N         138.7457  143.8620  162.7141 N.ar    1  UNL1       -0.2027
      4 C         139.5179  144.5968  163.7694 C.ar    1  UNL1        0.2367
      5 N         140.9656  144.9220  163.5497 N.ar    1  UNL1       -0.1828
      6 C         141.6412  144.5124  162.2745 C.ar    1  UNL1        0.2339
      7 C         142.9907  143.9677  157.8708 C.3     1  UNL1        0.1109
      8 N         142.3152  144.3773  159.1458 N.am    1  UNL1       -0.2990
      9 C         141.5445  143.3679  159.9442 C.2     1  UNL1        0.2532
     10 O         141.4494  141.9489  159.4673 O.2     1  UNL1       -0.2699
     11 H         142.3777  145.3087  159.4588 H       1  UNL1        0.1498
     12 N         138.6490  142.7175  160.3837 N.pl3   1  UNL1       -0.3178
     13 H         138.5991  143.0785  159.4692 H       1  UNL1        0.1482
     14 C         137.9529  141.4326  160.7218 C.3     1  UNL1        0.0881
     15 C         138.6402  140.4097  161.5770 C.3     1  UNL1        0.0196
     16 C         139.7445  139.5723  161.0033 C.3     1  UNL1        0.0017
     17 C         140.4318  138.5494  161.8585 C.3     1  UNL1        0.0001
     18 C         140.0148  138.3639  163.2873 C.3     1  UNL1        0.0000
     19 C         141.1219  137.3744  163.0745 C.3     1  UNL1        0.0000
     20 C         140.9868  136.9173  164.4968 C.3     1  UNL1        0.0000
     21 C         139.8797  137.9068  164.7096 C.3     1  UNL1        0.0000
     22 C         138.9105  139.2013  163.8610 C.3     1  UNL1        0.0001
     23 C         138.2232  140.2242  163.0058 C.3     1  UNL1        0.0017
     24 C         138.8424  145.0064  165.0445 C.1     1  UNL1        0.1401
     25 N         138.1669  145.4161  166.3196 N.1     1  UNL1       -0.1876
     26 O         143.0889  144.8376  162.0548 O.3     1  UNL1       -0.4600
     27 C         144.1503  143.8815  162.5123 C.3     1  UNL1        0.2071
     28 C         143.8144  142.8059  163.5025 C.3     1  UNL1        0.0466
     29 C         143.8342  143.1063  164.9719 C.3     1  UNL1        0.0211
     30 C         143.4984  142.0307  165.9619 C.3     1  UNL1        0.0722
     31 N         143.1426  140.6546  165.4825 N.3     1  UNL1       -0.2740
     32 C         143.1228  140.3541  164.0131 C.3     1  UNL1        0.0722
     33 C         143.4587  141.4298  163.0231 C.3     1  UNL1        0.0211
     34 C         142.8068  139.5790  166.4726 C.3     1  UNL1        0.0576
     35 C         141.6574  139.7629  167.4188 C.3     1  UNL1        0.0173
     36 C         143.6202  138.3195  166.5165 C.3     1  UNL1        0.0173
@<TRIPOS>BOND
     1     7     8    1
     2     8     9   am
     3     9    10    2
     4     9     1    1
     5     1     2   ar
     6     2    12    1
     7    12    14    1
     8    14    15    1
     9    15    16    1
    10    16    17    1
    11    17    18    1
    12    18    19    1
    13    19    20    1
    14    20    21    1
    15    18    22    1
    16    22    23    1
    17     2     3   ar
    18     3     4   ar
    19     4    24    1
    20    24    25    3
    21     4     5   ar
    22     5     6   ar
    23     6    26    1
    24    26    27    1
    25    27    28    1
    26    28    29    1
    27    29    30    1
    28    30    31    1
    29    31    34    1
    30    34    35    1
    31    34    36    1
    32    31    32    1
    33    32    33    1
    34     6     1   ar
    35    33    28    1
    36    23    15    1
    37    21    18    1
    38     8    11    1
    39    12    13    1
@<TRIPOS>MOLECULE
*****
 36 39 0 0 0
SMALL
GASTEIGER

@<TRIPOS>ATOM
      1 C         141.5921  144.5014  161.5370 C.ar    1  UNL1        0.1377
      2 C         141.1419  145.0095  162.8747 C.ar    1  UNL1        0.1397
      3 N         142.0725  144.9550  164.0497 N.ar    1  UNL1       -0.2027
      4 C         143.4535  144.3923  163.8873 C.ar    1  UNL1        0.2367
      5 N         143.9037  143.8842  162.5497 N.ar    1  UNL1       -0.1828
      6 C         142.9731  143.9388  161.3746 C.ar    1  UNL1        0.2339
      7 C         139.6382  143.4439  158.2486 C.3     1  UNL1        0.1109
      8 N         140.5689  143.3893  159.4237 N.am    1  UNL1       -0.2990
      9 C         140.6614  144.5560  160.3620 C.2     1  UNL1        0.2532
     10 O         139.8233  145.7773  160.1252 O.2     1  UNL1       -0.2699
     11 H         141.1190  142.5878  159.5791 H       1  UNL1        0.1498
     12 N         139.7609  145.5722  163.0371 N.pl3   1  UNL1       -0.3178
     13 H         139.5560  146.4769  162.7072 H       1  UNL1        0.1482
     14 C         138.6922  144.7566  163.7023 C.3     1  UNL1        0.0881
     15 C         138.5128  143.3132  163.3356 C.3     1  UNL1        0.0196
     16 C         138.0966  142.9391  161.9440 C.3     1  UNL1        0.0017
     17 C         137.9173  141.4957  161.5773 C.3     1  UNL1        0.0001
     18 C         138.1541  140.4264  162.6022 C.3     1  UNL1        0.0000
     19 C         137.7607  139.6896  161.3563 C.3     1  UNL1        0.0000
     20 C         137.9005  138.3851  162.0836 C.3     1  UNL1        0.0000
     21 C         138.2940  139.1220  163.3296 C.3     1  UNL1        0.0000
     22 C         138.5704  140.8006  163.9939 C.3     1  UNL1        0.0001
     23 C         138.7497  142.2440  164.3606 C.3     1  UNL1        0.0017
     24 C         144.3841  144.3377  165.0623 C.1     1  UNL1        0.1401
     25 N         145.3149  144.2831  166.2374 N.1     1  UNL1       -0.1876
     26 O         143.4233  143.4307  160.0370 O.3     1  UNL1       -0.4600
     27 C         143.6823  141.9665  159.8393 C.3     1  UNL1        0.2071
     28 C         143.3121  140.9876  160.9139 C.3     1  UNL1        0.0466
     29 C         141.9167  140.4415  160.9827 C.3     1  UNL1        0.0211
     30 C         141.5466  139.4626  162.0572 C.3     1  UNL1        0.0722
     31 N         142.5718  139.0298  163.0631 N.3     1  UNL1       -0.2740
     32 C         143.9671  139.5759  162.9943 C.3     1  UNL1        0.0722
     33 C         144.3373  140.5548  161.9197 C.3     1  UNL1        0.0211
     34 C         142.2016  138.0509  164.1377 C.3     1  UNL1        0.0576
     35 C         141.1858  136.9823  163.8612 C.3     1  UNL1        0.0173
     36 C         142.8471  138.1406  165.4887 C.3     1  UNL1        0.0173
@<TRIPOS>BOND
     1     7     8    1
     2     8     9   am
     3     9    10    2
     4     9     1    1
     5     1     2   ar
     6     2    12    1
     7    12    14    1
     8    14    15    1
     9    15    16    1
    10    16    17    1
    11    17    18    1
    12    18    19    1
    13    19    20    1
    14    20    21    1
    15    18    22    1
    16    22    23    1
    17     2     3   ar
    18     3     4   ar
    19     4    24    1
    20    24    25    3
    21     4     5   ar
    22     5     6   ar
    23     6    26    1
    24    26    27    1
    25    27    28    1
    26    28    29    1
    27    29    30    1
    28    30    31    1
    29    31    34    1
    30    34    35    1
    31    34    36    1
    32    31    32    1
    33    32    33    1
    34     6     1   ar
    35    33    28    1
    36    23    15    1
    37    21    18    1
    38     8    11    1
    39    12    13    1
@<TRIPOS>MOLECULE
*****
 36 39 0 0 0
SMALL
GASTEIGER

@<TRIPOS>ATOM
      1 C         142.8875  143.3684  161.2472 C.ar    1  UNL1        0.1377
      2 C         141.9004  144.4323  161.6267 C.ar    1  UNL1        0.1397
      3 N         141.1865  145.2079  160.5598 N.ar    1  UNL1       -0.2027
      4 C         141.4595  144.9198  159.1132 C.ar    1  UNL1        0.2367
      5 N         142.4465  143.8560  158.7337 N.ar    1  UNL1       -0.1828
      6 C         143.1605  143.0803  159.8007 C.ar    1  UNL1        0.2339
      7 C         145.8144  141.7589  163.3903 C.3     1  UNL1        0.1109
      8 N         145.1004  142.5346  162.3233 N.am    1  UNL1       -0.2990
      9 C         143.6015  142.5927  162.3142 C.2     1  UNL1        0.2532
     10 O         142.8166  141.8751  163.3721 O.2     1  UNL1       -0.2699
     11 H         145.6155  143.0055  161.6290 H       1  UNL1        0.1498
     12 N         141.6274  144.7204  163.0733 N.pl3   1  UNL1       -0.3178
     13 H         142.3594  145.0114  163.6639 H       1  UNL1        0.1482
     14 C         140.2393  144.5651  163.6199 C.3     1  UNL1        0.0881
     15 C         139.8662  143.3259  164.3785 C.3     1  UNL1        0.0196
     16 C         138.8814  142.3570  163.7943 C.3     1  UNL1        0.0017
     17 C         138.5083  141.1178  164.5528 C.3     1  UNL1        0.0001
     18 C         139.1200  140.8476  165.8955 C.3     1  UNL1        0.0000
     19 C         138.2044  139.6861  165.6452 C.3     1  UNL1        0.0000
     20 C         138.5924  139.0951  166.9682 C.3     1  UNL1        0.0000
     21 C         139.5080  140.2567  167.2185 C.3     1  UNL1        0.0000
     22 C         140.1048  141.8166  166.4796 C.3     1  UNL1        0.0001
     23 C         140.4779  143.0557  165.7211 C.3     1  UNL1        0.0017
     24 C         140.7455  145.6955  158.0463 C.1     1  UNL1        0.1401
     25 N         140.0315  146.4713  156.9792 N.1     1  UNL1       -0.1876
     26 O         144.1475  142.0164  159.4211 O.3     1  UNL1       -0.4600
     27 C         143.6779  140.6156  159.1621 C.3     1  UNL1        0.2071
     28 C         142.8539  139.8987  160.1904 C.3     1  UNL1        0.0466
     29 C         141.3578  140.0018  160.1576 C.3     1  UNL1        0.0211
     30 C         140.5339  139.2849  161.1858 C.3     1  UNL1        0.0722
     31 N         141.2061  138.4648  162.2467 N.3     1  UNL1       -0.2740
     32 C         142.7022  138.3616  162.2795 C.3     1  UNL1        0.0722
     33 C         143.5261  139.0786  161.2513 C.3     1  UNL1        0.0211
     34 C         140.3822  137.7479  163.2749 C.3     1  UNL1        0.0576
     35 C         138.9116  137.5517  163.0539 C.3     1  UNL1        0.0173
     36 C         141.0288  137.2271  164.5242 C.3     1  UNL1        0.0173
@<TRIPOS>BOND
     1     7     8    1
     2     8     9   am
     3     9    10    2
     4     9     1    1
     5     1     2   ar
     6     2    12    1
     7    12    14    1
     8    14    15    1
     9    15    16    1
    10    16    17    1
    11    17    18    1
    12    18    19    1
    13    19    20    1
    14    20    21    1
    15    18    22    1
    16    22    23    1
    17     2     3   ar
    18     3     4   ar
    19     4    24    1
    20    24    25    3
    21     4     5   ar
    22     5     6   ar
    23     6    26    1
    24    26    27    1
    25    27    28    1
    26    28    29    1
    27    29    30    1
    28    30    31    1
    29    31    34    1
    30    34    35    1
    31    34    36    1
    32    31    32    1
    33    32    33    1
    34     6     1   ar
    35    33    28    1
    36    23    15    1
    37    21    18    1
    38     8    11    1
    39    12    13    1
