@<TRIPOS>MOLECULE
*****
 35 39 0 0 0
SMALL
GASTEIGER

@<TRIPOS>ATOM
      1 N         140.7667  142.8314  162.8738 N.am    1  UNL1       -0.2761
      2 C         141.2748  143.6679  164.0105 C.3     1  UNL1        0.0985
      3 C         141.0551  143.2229  165.4259 C.3     1  UNL1        0.0507
      4 C         140.3272  141.9413  165.7047 C.ar    1  UNL1        0.0153
      5 C         139.8191  141.1048  164.5681 C.ar    1  UNL1        0.1335
      6 N         139.0912  139.8232  164.8469 N.ar    1  UNL1       -0.2190
      7 C         138.8714  139.3781  166.2623 C.ar    1  UNL1        0.2349
      8 N         139.3796  140.2146  167.3991 N.ar    1  UNL1       -0.2280
      9 C         140.1074  141.4962  167.1203 C.ar    1  UNL1        0.0579
     10 C         140.0389  141.5498  163.1526 C.2     1  UNL1        0.2665
     11 O         139.5308  140.7133  162.0159 O.2     1  UNL1       -0.2683
     12 C         141.4260  144.1666  158.6272 C.3     1  UNL1        0.0333
     13 C         140.0604  144.2632  159.2405 C.3     1  UNL1        0.0071
     14 C         139.8407  143.8182  160.6560 C.3     1  UNL1        0.0202
     15 C         140.9865  143.2765  161.4583 C.3     1  UNL1        0.0757
     16 C         142.3520  143.1798  160.8451 C.3     1  UNL1        0.0202
     17 C         142.5718  143.6249  159.4295 C.3     1  UNL1        0.0071
     18 C         140.6623  144.7444  157.4728 C.ar    1  UNL1       -0.0207
     19 C         140.4133  143.9150  156.2480 C.ar    1  UNL1       -0.0042
     20 C         139.6496  144.4929  155.0934 C.ar    1  UNL1        0.0005
     21 C         139.1350  145.9001  155.1637 C.ar    1  UNL1        0.0114
     22 C         139.3840  146.7295  156.3885 C.ar    1  UNL1        0.0574
     23 CL        138.8694  148.1366  156.4587 Cl      1  UNL1       -0.0823
     24 C         140.1477  146.1516  157.5430 C.ar    1  UNL1        0.0072
     25 N         143.7644  143.4369  157.7616 N.3     1  UNL1       -0.3209
     26 C         142.5263  144.2706  157.6131 C.3     1  UNL1        0.0691
     27 H         144.4013  143.6335  156.9895 H       1  UNL1        0.1189
     28 H         143.5121  142.4487  157.7510 H       1  UNL1        0.1189
     29 C         138.1436  138.0965  166.5411 C.3     1  UNL1        0.4523
     30 F         137.4157  136.8149  166.8199 F       1  UNL1       -0.1632
     31 F         138.8825  137.4324  165.4174 F       1  UNL1       -0.1632
     32 F         137.4046  138.7607  167.6649 F       1  UNL1       -0.1632
     33 C         140.6155  142.3327  168.2569 C.3     1  UNL1        0.0401
     34 C         140.3848  143.3879  169.2977 C.3     1  UNL1        0.0063
     35 C         141.7263  142.7265  169.1849 C.3     1  UNL1        0.0063
@<TRIPOS>BOND
     1    25    26    1
     2    12    26    1
     3    12    18    1
     4    18    19   ar
     5    19    20   ar
     6    20    21   ar
     7    21    22   ar
     8    22    23    1
     9    22    24   ar
    10    12    13    1
    11    13    14    1
    12    14    15    1
    13    15     1    1
    14     1     2    1
    15     2     3    1
    16     3     4    1
    17     4     5   ar
    18     5     6   ar
    19     6     7   ar
    20     7    29    1
    21    29    30    1
    22    29    31    1
    23    29    32    1
    24     7     8   ar
    25     8     9   ar
    26     9    33    1
    27    33    34    1
    28    34    35    1
    29     5    10    1
    30    10    11    2
    31    15    16    1
    32    16    17    1
    33    17    12    1
    34    24    18   ar
    35    10     1   am
    36     9     4   ar
    37    35    33    1
    38    25    27    1
    39    25    28    1
@<TRIPOS>MOLECULE
*****
 35 39 0 0 0
SMALL
GASTEIGER

@<TRIPOS>ATOM
      1 N         141.7169  142.0634  162.9607 N.am    1  UNL1       -0.2761
      2 C         142.1539  142.9872  164.0587 C.3     1  UNL1        0.0985
      3 C         141.6850  142.7557  165.4646 C.3     1  UNL1        0.0507
      4 C         140.7791  141.6004  165.7724 C.ar    1  UNL1        0.0153
      5 C         140.3421  140.6767  164.6744 C.ar    1  UNL1        0.1335
      6 N         139.4362  139.5215  164.9822 N.ar    1  UNL1       -0.2190
      7 C         138.9673  139.2900  166.3881 C.ar    1  UNL1        0.2349
      8 N         139.4044  140.2137  167.4862 N.ar    1  UNL1       -0.2280
      9 C         140.3103  141.3689  167.1784 C.ar    1  UNL1        0.0579
     10 C         140.8110  140.9082  163.2685 C.2     1  UNL1        0.2665
     11 O         140.3740  139.9845  162.1704 O.2     1  UNL1       -0.2683
     12 C         143.1236  142.7578  158.7429 C.3     1  UNL1        0.0333
     13 C         143.6700  141.6079  159.5361 C.3     1  UNL1        0.0071
     14 C         143.2012  141.3765  160.9420 C.3     1  UNL1        0.0202
     15 C         142.1858  142.2949  161.5547 C.3     1  UNL1        0.0757
     16 C         141.6393  143.4448  160.7616 C.3     1  UNL1        0.0202
     17 C         142.1082  143.6763  159.3556 C.3     1  UNL1        0.0071
     18 C         144.0624  142.1676  157.7329 C.ar    1  UNL1       -0.0207
     19 C         143.5777  141.1088  156.7873 C.ar    1  UNL1       -0.0042
     20 C         144.5165  140.5185  155.7773 C.ar    1  UNL1        0.0005
     21 C         145.9400  140.9870  155.7128 C.ar    1  UNL1        0.0114
     22 C         146.4247  142.0457  156.6584 C.ar    1  UNL1        0.0574
     23 CL        147.8482  142.5141  156.5938 Cl      1  UNL1       -0.0823
     24 C         145.4859  142.6360  157.6684 C.ar    1  UNL1        0.0072
     25 N         142.7166  145.1677  157.8616 N.3     1  UNL1       -0.3209
     26 C         142.9031  143.7027  157.5990 C.3     1  UNL1        0.0691
     27 H         142.5802  145.6570  156.9771 H       1  UNL1        0.1189
     28 H         143.5438  145.5371  158.3304 H       1  UNL1        0.1189
     29 C         138.0614  138.1347  166.6959 C.3     1  UNL1        0.4523
     30 F         137.1555  136.9795  167.0038 F       1  UNL1       -0.1632
     31 F         137.4846  138.8954  167.8530 F       1  UNL1       -0.1632
     32 F         138.6382  137.3741  165.5389 F       1  UNL1       -0.1632
     33 C         140.7473  142.2927  168.2764 C.3     1  UNL1        0.0401
     34 C         141.8022  142.7687  169.2306 C.3     1  UNL1        0.0063
     35 C         140.4494  143.4166  169.2240 C.3     1  UNL1        0.0063
@<TRIPOS>BOND
     1    25    26    1
     2    12    26    1
     3    12    18    1
     4    18    19   ar
     5    19    20   ar
     6    20    21   ar
     7    21    22   ar
     8    22    23    1
     9    22    24   ar
    10    12    13    1
    11    13    14    1
    12    14    15    1
    13    15     1    1
    14     1     2    1
    15     2     3    1
    16     3     4    1
    17     4     5   ar
    18     5     6   ar
    19     6     7   ar
    20     7    29    1
    21    29    30    1
    22    29    31    1
    23    29    32    1
    24     7     8   ar
    25     8     9   ar
    26     9    33    1
    27    33    34    1
    28    34    35    1
    29     5    10    1
    30    10    11    2
    31    15    16    1
    32    16    17    1
    33    17    12    1
    34    24    18   ar
    35    10     1   am
    36     9     4   ar
    37    35    33    1
    38    25    27    1
    39    25    28    1
@<TRIPOS>MOLECULE
*****
 35 39 0 0 0
SMALL
GASTEIGER

@<TRIPOS>ATOM
      1 N         140.8653  143.3473  159.8249 N.am    1  UNL1       -0.2761
      2 C         142.3337  143.2064  160.0966 C.3     1  UNL1        0.0985
      3 C         142.8032  142.4887  161.3271 C.3     1  UNL1        0.0507
      4 C         141.8044  141.9117  162.2860 C.ar    1  UNL1        0.0153
      5 C         140.3360  142.0526  162.0143 C.ar    1  UNL1        0.1335
      6 N         139.3371  141.4757  162.9732 N.ar    1  UNL1       -0.2190
      7 C         139.8067  140.7579  164.2037 C.ar    1  UNL1        0.2349
      8 N         141.2752  140.6170  164.4754 N.ar    1  UNL1       -0.2280
      9 C         142.2740  141.1939  163.5166 C.ar    1  UNL1        0.0579
     10 C         139.8664  142.7704  160.7838 C.2     1  UNL1        0.2665
     11 O         138.3979  142.9113  160.5121 O.2     1  UNL1       -0.2683
     12 C         139.4564  145.5007  156.1332 C.3     1  UNL1        0.0333
     13 C         140.2329  146.2399  157.1824 C.3     1  UNL1        0.0071
     14 C         140.7025  145.5221  158.4129 C.3     1  UNL1        0.0202
     15 C         140.3956  144.0651  158.5943 C.3     1  UNL1        0.0757
     16 C         139.6191  143.3259  157.5453 C.3     1  UNL1        0.0202
     17 C         139.1495  144.0437  156.3147 C.3     1  UNL1        0.0071
     18 C         139.4987  146.8656  155.5126 C.ar    1  UNL1       -0.0207
     19 C         140.2340  147.0807  154.2231 C.ar    1  UNL1       -0.0042
     20 C         140.2763  148.4457  153.6024 C.ar    1  UNL1        0.0005
     21 C         139.5833  149.5955  154.2714 C.ar    1  UNL1        0.0114
     22 C         138.8480  149.3804  155.5610 C.ar    1  UNL1        0.0574
     23 CL        138.1550  150.5303  156.2299 Cl      1  UNL1       -0.0823
     24 C         138.8057  148.0155  156.1816 C.ar    1  UNL1        0.0072
     25 N         137.2229  144.9510  154.9252 N.3     1  UNL1       -0.3209
     26 C         138.6946  145.2355  154.8686 C.3     1  UNL1        0.0691
     27 H         136.8701  144.7955  153.9809 H       1  UNL1        0.1189
     28 H         136.7387  145.7459  155.3425 H       1  UNL1        0.1189
     29 C         138.8078  140.1810  165.1626 C.3     1  UNL1        0.4523
     30 F         137.8090  139.6041  166.1215 F       1  UNL1       -0.1632
     31 F         137.6995  140.8685  164.4217 F       1  UNL1       -0.1632
     32 F         139.9162  139.4935  165.9035 F       1  UNL1       -0.1632
     33 C         143.7425  141.0531  163.7882 C.3     1  UNL1        0.0401
     34 C         145.0502  141.6578  164.2054 C.3     1  UNL1        0.0063
     35 C         144.9781  140.2044  163.8415 C.3     1  UNL1        0.0063
@<TRIPOS>BOND
     1    25    26    1
     2    12    26    1
     3    12    18    1
     4    18    19   ar
     5    19    20   ar
     6    20    21   ar
     7    21    22   ar
     8    22    23    1
     9    22    24   ar
    10    12    13    1
    11    13    14    1
    12    14    15    1
    13    15     1    1
    14     1     2    1
    15     2     3    1
    16     3     4    1
    17     4     5   ar
    18     5     6   ar
    19     6     7   ar
    20     7    29    1
    21    29    30    1
    22    29    31    1
    23    29    32    1
    24     7     8   ar
    25     8     9   ar
    26     9    33    1
    27    33    34    1
    28    34    35    1
    29     5    10    1
    30    10    11    2
    31    15    16    1
    32    16    17    1
    33    17    12    1
    34    24    18   ar
    35    10     1   am
    36     9     4   ar
    37    35    33    1
    38    25    27    1
    39    25    28    1
@<TRIPOS>MOLECULE
*****
 35 39 0 0 0
SMALL
GASTEIGER

@<TRIPOS>ATOM
      1 N         141.5248  139.7208  160.0805 N.am    1  UNL1       -0.2761
      2 C         141.2233  138.4867  159.2829 C.3     1  UNL1        0.0985
      3 C         142.0253  138.1730  158.0548 C.3     1  UNL1        0.0507
      4 C         143.1287  139.0934  157.6242 C.ar    1  UNL1        0.0153
      5 C         143.4301  140.3275  158.4217 C.ar    1  UNL1        0.1335
      6 N         144.5336  141.2478  157.9911 N.ar    1  UNL1       -0.2190
      7 C         145.3355  140.9341  156.7630 C.ar    1  UNL1        0.2349
      8 N         145.0341  139.6999  155.9654 N.ar    1  UNL1       -0.2280
      9 C         143.9307  138.7796  156.3960 C.ar    1  UNL1        0.0579
     10 C         142.6282  140.6412  159.6499 C.2     1  UNL1        0.2665
     11 O         142.9296  141.8753  160.4475 O.2     1  UNL1       -0.2683
     12 C         139.1189  140.6622  163.7651 C.3     1  UNL1        0.0333
     13 C         140.3855  139.8666  163.8793 C.3     1  UNL1        0.0071
     14 C         141.1874  139.5529  162.6511 C.3     1  UNL1        0.0202
     15 C         140.7228  140.0346  161.3087 C.3     1  UNL1        0.0757
     16 C         139.4563  140.8301  161.1945 C.3     1  UNL1        0.0202
     17 C         138.6543  141.1439  162.4227 C.3     1  UNL1        0.0071
     18 C         139.1470  140.4285  165.2465 C.ar    1  UNL1       -0.0207
     19 C         138.2928  139.3549  165.8528 C.ar    1  UNL1       -0.0042
     20 C         138.3210  139.1212  167.3342 C.ar    1  UNL1        0.0005
     21 C         139.2034  139.9612  168.2093 C.ar    1  UNL1        0.0114
     22 C         140.0576  141.0349  167.6030 C.ar    1  UNL1        0.0574
     23 CL        140.9399  141.8748  168.4782 Cl      1  UNL1       -0.0823
     24 C         140.0294  141.2685  166.1216 C.ar    1  UNL1        0.0072
     25 N         136.6885  141.4096  163.2318 N.3     1  UNL1       -0.3209
     26 C         137.8621  141.3765  164.1653 C.3     1  UNL1        0.0691
     27 H         135.9266  141.9337  163.6621 H       1  UNL1        0.1189
     28 H         136.3798  140.4566  163.0399 H       1  UNL1        0.1189
     29 C         146.4389  141.8544  156.3324 C.3     1  UNL1        0.4523
     30 F         147.5424  142.7748  155.9017 F       1  UNL1       -0.1632
     31 F         146.6240  141.0473  155.0816 F       1  UNL1       -0.1632
     32 F         146.2538  142.6615  157.5831 F       1  UNL1       -0.1632
     33 C         143.6292  137.5455  155.5984 C.3     1  UNL1        0.0401
     34 C         142.8946  136.8696  154.4789 C.3     1  UNL1        0.0063
     35 C         143.8417  136.0839  155.3366 C.3     1  UNL1        0.0063
@<TRIPOS>BOND
     1    25    26    1
     2    12    26    1
     3    12    18    1
     4    18    19   ar
     5    19    20   ar
     6    20    21   ar
     7    21    22   ar
     8    22    23    1
     9    22    24   ar
    10    12    13    1
    11    13    14    1
    12    14    15    1
    13    15     1    1
    14     1     2    1
    15     2     3    1
    16     3     4    1
    17     4     5   ar
    18     5     6   ar
    19     6     7   ar
    20     7    29    1
    21    29    30    1
    22    29    31    1
    23    29    32    1
    24     7     8   ar
    25     8     9   ar
    26     9    33    1
    27    33    34    1
    28    34    35    1
    29     5    10    1
    30    10    11    2
    31    15    16    1
    32    16    17    1
    33    17    12    1
    34    24    18   ar
    35    10     1   am
    36     9     4   ar
    37    35    33    1
    38    25    27    1
    39    25    28    1
@<TRIPOS>MOLECULE
*****
 35 39 0 0 0
SMALL
GASTEIGER

@<TRIPOS>ATOM
      1 N         142.3563  141.8471  163.0234 N.am    1  UNL1       -0.2761
      2 C         143.1298  142.5430  164.1039 C.3     1  UNL1        0.0985
      3 C         142.7484  142.3509  165.5418 C.3     1  UNL1        0.0507
      4 C         141.5935  141.4630  165.8992 C.ar    1  UNL1        0.0153
      5 C         140.8200  140.7671  164.8187 C.ar    1  UNL1        0.1335
      6 N         139.6651  139.8792  165.1762 N.ar    1  UNL1       -0.2190
      7 C         139.2837  139.6871  166.6140 C.ar    1  UNL1        0.2349
      8 N         140.0572  140.3830  167.6946 N.ar    1  UNL1       -0.2280
      9 C         141.2121  141.2709  167.3372 C.ar    1  UNL1        0.0579
     10 C         141.2014  140.9592  163.3808 C.2     1  UNL1        0.2665
     11 O         140.4279  140.2633  162.3003 O.2     1  UNL1       -0.2683
     12 C         143.5005  142.4233  158.7095 C.3     1  UNL1        0.0333
     13 C         143.9900  141.2210  159.4612 C.3     1  UNL1        0.0071
     14 C         143.6086  141.0290  160.8991 C.3     1  UNL1        0.0202
     15 C         142.7377  142.0392  161.5854 C.3     1  UNL1        0.0757
     16 C         142.2482  143.2414  160.8338 C.3     1  UNL1        0.0202
     17 C         142.6296  143.4335  159.3958 C.3     1  UNL1        0.0071
     18 C         144.2976  141.7493  157.6323 C.ar    1  UNL1       -0.0207
     19 C         145.6137  142.3255  157.2013 C.ar    1  UNL1       -0.0042
     20 C         146.4107  141.6514  156.1240 C.ar    1  UNL1        0.0005
     21 C         145.8916  140.4013  155.4778 C.ar    1  UNL1        0.0114
     22 C         144.5755  139.8251  155.9089 C.ar    1  UNL1        0.0574
     23 CL        144.0565  138.5749  155.2626 Cl      1  UNL1       -0.0823
     24 C         143.7785  140.4991  156.9861 C.ar    1  UNL1        0.0072
     25 N         142.8762  144.8037  157.8768 N.3     1  UNL1       -0.3209
     26 C         143.2878  143.3915  157.5838 C.3     1  UNL1        0.0691
     27 H         142.7778  145.3178  157.0014 H       1  UNL1        0.1189
     28 H         143.5862  145.2516  158.4562 H       1  UNL1        0.1189
     29 C         138.1288  138.7991  166.9715 C.3     1  UNL1        0.4523
     30 F         136.9739  137.9112  167.3289 F       1  UNL1       -0.1632
     31 F         138.1494  138.2161  165.5896 F       1  UNL1       -0.1632
     32 F         138.1082  139.3822  168.3534 F       1  UNL1       -0.1632
     33 C         141.9856  141.9668  168.4176 C.3     1  UNL1        0.0401
     34 C         142.0315  142.9237  169.5719 C.3     1  UNL1        0.0063
     35 C         143.2793  142.2152  169.1348 C.3     1  UNL1        0.0063
@<TRIPOS>BOND
     1    25    26    1
     2    12    26    1
     3    12    18    1
     4    18    19   ar
     5    19    20   ar
     6    20    21   ar
     7    21    22   ar
     8    22    23    1
     9    22    24   ar
    10    12    13    1
    11    13    14    1
    12    14    15    1
    13    15     1    1
    14     1     2    1
    15     2     3    1
    16     3     4    1
    17     4     5   ar
    18     5     6   ar
    19     6     7   ar
    20     7    29    1
    21    29    30    1
    22    29    31    1
    23    29    32    1
    24     7     8   ar
    25     8     9   ar
    26     9    33    1
    27    33    34    1
    28    34    35    1
    29     5    10    1
    30    10    11    2
    31    15    16    1
    32    16    17    1
    33    17    12    1
    34    24    18   ar
    35    10     1   am
    36     9     4   ar
    37    35    33    1
    38    25    27    1
    39    25    28    1
@<TRIPOS>MOLECULE
*****
 35 39 0 0 0
SMALL
GASTEIGER

@<TRIPOS>ATOM
      1 N         139.0764  140.1811  161.9405 N.am    1  UNL1       -0.2761
      2 C         138.3074  141.2951  161.2942 C.3     1  UNL1        0.0985
      3 C         138.1181  141.3110  159.8063 C.3     1  UNL1        0.0507
      4 C         138.6978  140.2130  158.9647 C.ar    1  UNL1        0.0153
      5 C         139.4669  139.0991  159.6110 C.ar    1  UNL1        0.1335
      6 N         140.0466  138.0012  158.7693 N.ar    1  UNL1       -0.2190
      7 C         139.8573  138.0171  157.2814 C.ar    1  UNL1        0.2349
      8 N         139.0882  139.1311  156.6351 N.ar    1  UNL1       -0.2280
      9 C         138.5085  140.2290  157.4767 C.ar    1  UNL1        0.0579
     10 C         139.6562  139.0832  161.0988 C.2     1  UNL1        0.2665
     11 O         140.4253  137.9692  161.7452 O.2     1  UNL1       -0.2683
     12 C         139.6445  140.1332  166.4043 C.3     1  UNL1        0.0333
     13 C         140.5802  140.9227  165.5375 C.3     1  UNL1        0.0071
     14 C         140.3909  140.9386  164.0497 C.3     1  UNL1        0.0202
     15 C         139.2658  140.1651  163.4285 C.3     1  UNL1        0.0757
     16 C         138.3301  139.3757  164.2951 C.3     1  UNL1        0.0202
     17 C         138.5194  139.3597  165.7831 C.3     1  UNL1        0.0071
     18 C         140.5543  140.7010  167.4530 C.ar    1  UNL1       -0.0207
     19 C         141.8173  139.9799  167.8204 C.ar    1  UNL1       -0.0042
     20 C         142.7272  140.5478  168.8691 C.ar    1  UNL1        0.0005
     21 C         142.3740  141.8366  169.5504 C.ar    1  UNL1        0.0114
     22 C         141.1111  142.5577  169.1829 C.ar    1  UNL1        0.0574
     23 CL        140.7580  143.8465  169.8643 Cl      1  UNL1       -0.0823
     24 C         140.2012  141.9899  168.1343 C.ar    1  UNL1        0.0072
     25 N         137.8045  138.6764  167.5188 N.3     1  UNL1       -0.3209
     26 C         139.0247  139.5409  167.6352 C.3     1  UNL1        0.0691
     27 H         137.5208  138.3620  168.4467 H       1  UNL1        0.1189
     28 H         138.0158  137.8668  166.9353 H       1  UNL1        0.1189
     29 C         140.4371  136.9191  156.4398 C.3     1  UNL1        0.4523
     30 F         141.0168  135.8212  155.5981 F       1  UNL1       -0.1632
     31 F         139.1903  136.9000  155.6059 F       1  UNL1       -0.1632
     32 F         141.6838  136.9383  157.2736 F       1  UNL1       -0.1632
     33 C         137.7394  141.3430  156.8305 C.3     1  UNL1        0.0401
     34 C         136.4721  141.8624  156.2188 C.3     1  UNL1        0.0063
     35 C         137.6746  142.7529  156.3228 C.3     1  UNL1        0.0063
@<TRIPOS>BOND
     1    25    26    1
     2    12    26    1
     3    12    18    1
     4    18    19   ar
     5    19    20   ar
     6    20    21   ar
     7    21    22   ar
     8    22    23    1
     9    22    24   ar
    10    12    13    1
    11    13    14    1
    12    14    15    1
    13    15     1    1
    14     1     2    1
    15     2     3    1
    16     3     4    1
    17     4     5   ar
    18     5     6   ar
    19     6     7   ar
    20     7    29    1
    21    29    30    1
    22    29    31    1
    23    29    32    1
    24     7     8   ar
    25     8     9   ar
    26     9    33    1
    27    33    34    1
    28    34    35    1
    29     5    10    1
    30    10    11    2
    31    15    16    1
    32    16    17    1
    33    17    12    1
    34    24    18   ar
    35    10     1   am
    36     9     4   ar
    37    35    33    1
    38    25    27    1
    39    25    28    1
@<TRIPOS>MOLECULE
*****
 35 39 0 0 0
SMALL
GASTEIGER

@<TRIPOS>ATOM
      1 N         139.6069  139.4342  161.7856 N.am    1  UNL1       -0.2761
      2 C         140.5750  138.5042  161.1163 C.3     1  UNL1        0.0985
      3 C         140.5454  138.3365  159.6260 C.3     1  UNL1        0.0507
      4 C         139.5479  139.0988  158.8051 C.ar    1  UNL1        0.0153
      5 C         138.5799  140.0287  159.4744 C.ar    1  UNL1        0.1335
      6 N         137.5824  140.7910  158.6535 N.ar    1  UNL1       -0.2190
      7 C         137.5529  140.6233  157.1632 C.ar    1  UNL1        0.2349
      8 N         138.5210  139.6933  156.4938 N.ar    1  UNL1       -0.2280
      9 C         139.5185  138.9310  157.3147 C.ar    1  UNL1        0.0579
     10 C         138.6094  140.1965  160.9647 C.2     1  UNL1        0.2665
     11 O         137.6414  141.1265  161.6341 O.2     1  UNL1       -0.2683
     12 C         139.6954  139.9375  166.2566 C.3     1  UNL1        0.0333
     13 C         140.7990  140.5075  165.4156 C.3     1  UNL1        0.0071
     14 C         140.7695  140.3397  163.9254 C.3     1  UNL1        0.0202
     15 C         139.6364  139.6019  163.2760 C.3     1  UNL1        0.0757
     16 C         138.5328  139.0319  164.1168 C.3     1  UNL1        0.0202
     17 C         138.5623  139.1997  165.6072 C.3     1  UNL1        0.0071
     18 C         140.5481  140.5513  167.3271 C.ar    1  UNL1       -0.0207
     19 C         141.8206  139.8791  167.7499 C.ar    1  UNL1       -0.0042
     20 C         142.6733  140.4930  168.8205 C.ar    1  UNL1        0.0005
     21 C         142.2534  141.7791  169.4682 C.ar    1  UNL1        0.0114
     22 C         140.9809  142.4513  169.0454 C.ar    1  UNL1        0.0574
     23 CL        140.5612  143.7374  169.6932 Cl      1  UNL1       -0.0823
     24 C         140.1282  141.8375  167.9749 C.ar    1  UNL1        0.0072
     25 N         137.8059  138.5464  167.3721 N.3     1  UNL1       -0.3209
     26 C         138.8879  139.5806  167.4692 C.3     1  UNL1        0.0691
     27 H         137.3634  138.4306  168.2838 H       1  UNL1        0.1189
     28 H         138.2102  137.6582  167.0752 H       1  UNL1        0.1189
     29 C         136.5554  141.3855  156.3423 C.3     1  UNL1        0.4523
     30 F         135.5579  142.1478  155.5213 F       1  UNL1       -0.1632
     31 F         136.1761  140.1214  155.6294 F       1  UNL1       -0.1632
     32 F         136.9347  142.6497  157.0551 F       1  UNL1       -0.1632
     33 C         140.4865  138.0010  156.6454 C.3     1  UNL1        0.0401
     34 C         140.8235  136.6397  156.1131 C.3     1  UNL1        0.0063
     35 C         141.8260  137.7515  156.0183 C.3     1  UNL1        0.0063
@<TRIPOS>BOND
     1    25    26    1
     2    12    26    1
     3    12    18    1
     4    18    19   ar
     5    19    20   ar
     6    20    21   ar
     7    21    22   ar
     8    22    23    1
     9    22    24   ar
    10    12    13    1
    11    13    14    1
    12    14    15    1
    13    15     1    1
    14     1     2    1
    15     2     3    1
    16     3     4    1
    17     4     5   ar
    18     5     6   ar
    19     6     7   ar
    20     7    29    1
    21    29    30    1
    22    29    31    1
    23    29    32    1
    24     7     8   ar
    25     8     9   ar
    26     9    33    1
    27    33    34    1
    28    34    35    1
    29     5    10    1
    30    10    11    2
    31    15    16    1
    32    16    17    1
    33    17    12    1
    34    24    18   ar
    35    10     1   am
    36     9     4   ar
    37    35    33    1
    38    25    27    1
    39    25    28    1
@<TRIPOS>MOLECULE
*****
 35 39 0 0 0
SMALL
GASTEIGER

@<TRIPOS>ATOM
      1 N         142.3087  142.4261  161.9124 N.am    1  UNL1       -0.2761
      2 C         143.3875  141.5529  161.3435 C.3     1  UNL1        0.0985
      3 C         143.8301  141.7374  159.9222 C.3     1  UNL1        0.0507
      4 C         143.1939  142.7950  159.0698 C.ar    1  UNL1        0.0153
      5 C         142.1150  143.6682  159.6387 C.ar    1  UNL1        0.1335
      6 N         141.4788  144.7258  158.7863 N.ar    1  UNL1       -0.2190
      7 C         141.9214  144.9103  157.3650 C.ar    1  UNL1        0.2349
      8 N         143.0003  144.0371  156.7961 N.ar    1  UNL1       -0.2280
      9 C         143.6365  142.9794  157.6485 C.ar    1  UNL1        0.0579
     10 C         141.6725  143.4837  161.0600 C.2     1  UNL1        0.2665
     11 O         140.5936  144.3569  161.6289 O.2     1  UNL1       -0.2683
     12 C         140.9809  141.8729  166.1763 C.3     1  UNL1        0.0333
     13 C         142.1142  142.8027  165.8583 C.3     1  UNL1        0.0071
     14 C         142.5567  142.9871  164.4370 C.3     1  UNL1        0.0202
     15 C         141.8661  142.2417  163.3337 C.3     1  UNL1        0.0757
     16 C         140.7328  141.3119  163.6517 C.3     1  UNL1        0.0202
     17 C         140.2902  141.1274  165.0730 C.3     1  UNL1        0.0071
     18 C         141.3187  142.3533  167.5565 C.ar    1  UNL1       -0.0207
     19 C         140.2766  143.0423  168.3869 C.ar    1  UNL1       -0.0042
     20 C         140.6145  143.5227  169.7671 C.ar    1  UNL1        0.0005
     21 C         141.9944  143.3142  170.3170 C.ar    1  UNL1        0.0114
     22 C         143.0365  142.6253  169.4866 C.ar    1  UNL1        0.0574
     23 CL        144.4163  142.4168  170.0366 Cl      1  UNL1       -0.0823
     24 C         142.6986  142.1448  168.1064 C.ar    1  UNL1        0.0072
     25 N         139.6005  139.7092  166.5799 N.3     1  UNL1       -0.3209
     26 C         139.9649  141.1099  166.9736 C.3     1  UNL1        0.0691
     27 H         138.9007  139.3453  167.2266 H       1  UNL1        0.1189
     28 H         140.4323  139.1196  166.6120 H       1  UNL1        0.1189
     29 C         141.2851  145.9679  156.5126 C.3     1  UNL1        0.4523
     30 F         140.6489  147.0255  155.6602 F       1  UNL1       -0.1632
     31 F         140.3738  146.3336  157.6465 F       1  UNL1       -0.1632
     32 F         142.1964  145.6022  155.3787 F       1  UNL1       -0.1632
     33 C         144.7153  142.1063  157.0796 C.3     1  UNL1        0.0401
     34 C         145.1478  140.8046  156.4724 C.3     1  UNL1        0.0063
     35 C         146.1515  141.8954  156.7016 C.3     1  UNL1        0.0063
@<TRIPOS>BOND
     1    25    26    1
     2    12    26    1
     3    12    18    1
     4    18    19   ar
     5    19    20   ar
     6    20    21   ar
     7    21    22   ar
     8    22    23    1
     9    22    24   ar
    10    12    13    1
    11    13    14    1
    12    14    15    1
    13    15     1    1
    14     1     2    1
    15     2     3    1
    16     3     4    1
    17     4     5   ar
    18     5     6   ar
    19     6     7   ar
    20     7    29    1
    21    29    30    1
    22    29    31    1
    23    29    32    1
    24     7     8   ar
    25     8     9   ar
    26     9    33    1
    27    33    34    1
    28    34    35    1
    29     5    10    1
    30    10    11    2
    31    15    16    1
    32    16    17    1
    33    17    12    1
    34    24    18   ar
    35    10     1   am
    36     9     4   ar
    37    35    33    1
    38    25    27    1
    39    25    28    1
@<TRIPOS>MOLECULE
*****
 35 39 0 0 0
SMALL
GASTEIGER

@<TRIPOS>ATOM
      1 N         140.5560  142.3545  161.9327 N.am    1  UNL1       -0.2761
      2 C         141.6026  143.2782  161.3838 C.3     1  UNL1        0.0985
      3 C         141.4923  143.7843  159.9760 C.3     1  UNL1        0.0507
      4 C         140.3355  143.3666  159.1173 C.ar    1  UNL1        0.0153
      5 C         139.2890  142.4428  159.6663 C.ar    1  UNL1        0.1335
      6 N         138.1322  142.0252  158.8076 N.ar    1  UNL1       -0.2190
      7 C         138.0220  142.5312  157.3999 C.ar    1  UNL1        0.2349
      8 N         139.0685  143.4550  156.8508 N.ar    1  UNL1       -0.2280
      9 C         140.2253  143.8727  157.7095 C.ar    1  UNL1        0.0579
     10 C         139.3993  141.9368  161.0740 C.2     1  UNL1        0.2665
     11 O         138.3527  141.0130  161.6231 O.2     1  UNL1       -0.2683
     12 C         140.8867  140.8362  166.1560 C.3     1  UNL1        0.0333
     13 C         140.1060  142.0839  165.8665 C.3     1  UNL1        0.0071
     14 C         139.9958  142.5900  164.4588 C.3     1  UNL1        0.0202
     15 C         140.6663  141.8484  163.3405 C.3     1  UNL1        0.0757
     16 C         141.4469  140.6007  163.6300 C.3     1  UNL1        0.0202
     17 C         141.5572  140.0946  165.0378 C.3     1  UNL1        0.0071
     18 C         140.4325  141.1868  167.5419 C.ar    1  UNL1       -0.0207
     19 C         139.7190  140.1662  168.3781 C.ar    1  UNL1       -0.0042
     20 C         139.2648  140.5168  169.7640 C.ar    1  UNL1        0.0005
     21 C         139.5243  141.8880  170.3138 C.ar    1  UNL1        0.0114
     22 C         140.2379  142.9087  169.4777 C.ar    1  UNL1        0.0574
     23 CL        140.4973  144.2799  170.0276 Cl      1  UNL1       -0.0823
     24 C         140.6920  142.5581  168.0918 C.ar    1  UNL1        0.0072
     25 N         142.7537  139.0480  166.4135 N.3     1  UNL1       -0.3209
     26 C         141.5096  139.7103  166.9269 C.3     1  UNL1        0.0691
     27 H         143.0364  138.3096  167.0578 H       1  UNL1        0.1189
     28 H         143.5006  139.7387  166.3392 H       1  UNL1        0.1189
     29 C         136.8652  142.1135  156.5412 C.3     1  UNL1        0.4523
     30 F         135.7084  141.6958  155.6825 F       1  UNL1       -0.1632
     31 F         136.6503  143.5417  156.1359 F       1  UNL1       -0.1632
     32 F         137.0800  140.6854  156.9464 F       1  UNL1       -0.1632
     33 C         141.2718  144.7964  157.1605 C.3     1  UNL1        0.0401
     34 C         142.1728  145.2178  156.0377 C.3     1  UNL1        0.0063
     35 C         142.1835  145.9750  157.3324 C.3     1  UNL1        0.0063
@<TRIPOS>BOND
     1    25    26    1
     2    12    26    1
     3    12    18    1
     4    18    19   ar
     5    19    20   ar
     6    20    21   ar
     7    21    22   ar
     8    22    23    1
     9    22    24   ar
    10    12    13    1
    11    13    14    1
    12    14    15    1
    13    15     1    1
    14     1     2    1
    15     2     3    1
    16     3     4    1
    17     4     5   ar
    18     5     6   ar
    19     6     7   ar
    20     7    29    1
    21    29    30    1
    22    29    31    1
    23    29    32    1
    24     7     8   ar
    25     8     9   ar
    26     9    33    1
    27    33    34    1
    28    34    35    1
    29     5    10    1
    30    10    11    2
    31    15    16    1
    32    16    17    1
    33    17    12    1
    34    24    18   ar
    35    10     1   am
    36     9     4   ar
    37    35    33    1
    38    25    27    1
    39    25    28    1
