@<TRIPOS>MOLECULE
*****
 35 38 0 0 0
SMALL
GASTEIGER

@<TRIPOS>ATOM
      1 C         137.4689  141.2060  162.5448 C.3     1  UNL1        0.0339
      2 C         138.5126  140.3029  163.1323 C.3     1  UNL1        0.1482
      3 C         139.5218  139.2402  163.4520 C.ar    1  UNL1        0.0066
      4 C         139.9947  138.0416  162.6842 C.ar    1  UNL1       -0.0021
      5 C         141.0384  137.1385  163.2717 C.ar    1  UNL1       -0.0003
      6 C         141.6092  137.4341  164.6270 C.ar    1  UNL1        0.0001
      7 C         141.1362  138.6328  165.3948 C.ar    1  UNL1        0.0043
      8 C         140.0926  139.5358  164.8073 C.ar    1  UNL1        0.0516
      9 C         139.4361  140.7812  165.3251 C.2     1  UNL1        0.2493
     10 O         139.7084  141.4373  166.6463 O.2     1  UNL1       -0.2699
     11 N         138.4597  141.2553  164.2899 N.am    1  UNL1       -0.2676
     12 C         138.3474  139.5393  161.8518 C.2     1  UNL1        0.2428
     13 O         137.4316  138.3524  161.7992 O.2     1  UNL1       -0.2730
     14 N         139.0979  139.9626  160.6239 N.am    1  UNL1       -0.2989
     15 H         139.6989  140.7415  160.6584 H       1  UNL1        0.1498
     16 C         138.9326  139.1990  159.3434 C.3     1  UNL1        0.1164
     17 C         140.1239  138.5632  158.6903 C.ar    1  UNL1       -0.0024
     18 C         139.9813  137.9016  157.3516 C.ar    1  UNL1        0.0005
     19 C         141.1725  137.2658  156.6986 C.ar    1  UNL1        0.0369
     20 C         142.5066  137.2916  157.3841 C.ar    1  UNL1        0.1468
     21 C         142.6492  137.9532  158.7228 C.ar    1  UNL1        0.0369
     22 C         141.4578  138.5889  159.3758 C.ar    1  UNL1        0.0005
     23 O         143.6978  136.6558  156.7310 O.3     1  UNL1       -0.4045
     24 C         143.6773  135.1943  156.3937 C.3     1  UNL1        0.5753
     25 F         143.6567  133.7328  156.0564 F       1  UNL1       -0.1328
     26 F         144.0742  135.5143  154.9830 F       1  UNL1       -0.1328
     27 F         143.2804  134.8743  157.8044 F       1  UNL1       -0.1328
     28 C         137.5840  142.4687  164.3940 C.3     1  UNL1        0.1007
     29 C         138.1953  143.8156  164.6435 C.3     1  UNL1        0.0673
     30 C         139.2505  144.3435  163.7173 C.ar    1  UNL1        0.0607
     31 C         140.6987  144.2427  164.0951 C.ar    1  UNL1        0.0148
     32 C         141.7539  144.7707  163.1688 C.ar    1  UNL1        0.0028
     33 C         141.3609  145.3994  161.8649 C.ar    1  UNL1        0.0207
     34 C         139.9127  145.5001  161.4871 C.ar    1  UNL1        0.0984
     35 N         138.8575  144.9722  162.4133 N.ar    1  UNL1       -0.2481
@<TRIPOS>BOND
     1     1     2    1
     2     2    12    1
     3    12    13    2
     4    12    14   am
     5    14    16    1
     6    16    17    1
     7    17    18   ar
     8    18    19   ar
     9    19    20   ar
    10    20    23    1
    11    23    24    1
    12    24    25    1
    13    24    26    1
    14    24    27    1
    15    20    21   ar
    16    21    22   ar
    17     2     3    1
    18     3     4   ar
    19     4     5   ar
    20     5     6   ar
    21     6     7   ar
    22     7     8   ar
    23     8     9    1
    24     9    10    2
    25     9    11   am
    26    11    28    1
    27    28    29    1
    28    29    30    1
    29    30    31   ar
    30    31    32   ar
    31    32    33   ar
    32    33    34   ar
    33    34    35   ar
    34    11     2    1
    35    35    30   ar
    36    22    17   ar
    37     8     3   ar
    38    14    15    1
@<TRIPOS>MOLECULE
*****
 35 38 0 0 0
SMALL
GASTEIGER

@<TRIPOS>ATOM
      1 C         143.7834  138.8838  161.7067 C.3     1  UNL1        0.0339
      2 C         143.8234  140.2874  162.2344 C.3     1  UNL1        0.1482
      3 C         143.8446  141.5512  163.0421 C.ar    1  UNL1        0.0066
      4 C         143.7893  141.7985  164.5205 C.ar    1  UNL1       -0.0021
      5 C         143.8294  143.2020  165.0481 C.ar    1  UNL1       -0.0003
      6 C         143.9247  144.3583  164.0973 C.ar    1  UNL1        0.0001
      7 C         143.9800  144.1109  162.6189 C.ar    1  UNL1        0.0043
      8 C         143.9399  142.7074  162.0913 C.ar    1  UNL1        0.0516
      9 C         143.9777  142.1582  160.6960 C.2     1  UNL1        0.2493
     10 O         144.0711  142.9633  159.4338 O.2     1  UNL1       -0.2699
     11 N         143.9057  140.6625  160.7844 N.am    1  UNL1       -0.2676
     12 C         143.7328  139.6188  163.5741 C.2     1  UNL1        0.2428
     13 O         144.9755  139.3837  164.3806 O.2     1  UNL1       -0.2730
     14 N         142.3994  139.1853  164.1073 N.am    1  UNL1       -0.2989
     15 H         141.5838  139.3396  163.5779 H       1  UNL1        0.1498
     16 C         142.3087  138.5167  165.4470 C.3     1  UNL1        0.1164
     17 C         141.9595  139.3206  166.6642 C.ar    1  UNL1       -0.0024
     18 C         140.7147  140.1574  166.6787 C.ar    1  UNL1        0.0005
     19 C         140.3655  140.9613  167.8959 C.ar    1  UNL1        0.0369
     20 C         141.2612  140.9284  169.0988 C.ar    1  UNL1        0.1468
     21 C         142.5060  140.0916  169.0844 C.ar    1  UNL1        0.0369
     22 C         142.8551  139.2877  167.8670 C.ar    1  UNL1        0.0005
     23 O         140.9119  141.7323  170.3161 O.3     1  UNL1       -0.4045
     24 C         140.5769  143.1883  170.1827 C.3     1  UNL1        0.5753
     25 F         140.2420  144.6444  170.0492 F       1  UNL1       -0.1328
     26 F         141.9514  143.4552  169.6444 F       1  UNL1       -0.1328
     27 F         139.2025  142.9215  170.7209 F       1  UNL1       -0.1328
     28 C         143.9145  139.7094  159.6262 C.3     1  UNL1        0.1007
     29 C         142.8989  139.8501  158.5314 C.3     1  UNL1        0.0673
     30 C         141.4405  139.9456  158.8690 C.ar    1  UNL1        0.0607
     31 C         140.7310  138.7684  159.4697 C.ar    1  UNL1        0.0148
     32 C         139.2726  138.8639  159.8073 C.ar    1  UNL1        0.0028
     33 C         138.5237  140.1368  159.5442 C.ar    1  UNL1        0.0207
     34 C         139.2332  141.3139  158.9435 C.ar    1  UNL1        0.0984
     35 N         140.6916  141.2184  158.6059 N.ar    1  UNL1       -0.2481
@<TRIPOS>BOND
     1     1     2    1
     2     2    12    1
     3    12    13    2
     4    12    14   am
     5    14    16    1
     6    16    17    1
     7    17    18   ar
     8    18    19   ar
     9    19    20   ar
    10    20    23    1
    11    23    24    1
    12    24    25    1
    13    24    26    1
    14    24    27    1
    15    20    21   ar
    16    21    22   ar
    17     2     3    1
    18     3     4   ar
    19     4     5   ar
    20     5     6   ar
    21     6     7   ar
    22     7     8   ar
    23     8     9    1
    24     9    10    2
    25     9    11   am
    26    11    28    1
    27    28    29    1
    28    29    30    1
    29    30    31   ar
    30    31    32   ar
    31    32    33   ar
    32    33    34   ar
    33    34    35   ar
    34    11     2    1
    35    35    30   ar
    36    22    17   ar
    37     8     3   ar
    38    14    15    1
@<TRIPOS>MOLECULE
*****
 35 38 0 0 0
SMALL
GASTEIGER

@<TRIPOS>ATOM
      1 C         143.5021  138.7655  161.8014 C.3     1  UNL1        0.0339
      2 C         143.6531  140.1603  162.3325 C.3     1  UNL1        0.1482
      3 C         143.7628  141.4179  163.1426 C.ar    1  UNL1        0.0066
      4 C         143.6798  141.6715  164.6187 C.ar    1  UNL1       -0.0021
      5 C         143.8308  143.0662  165.1497 C.ar    1  UNL1       -0.0003
      6 C         144.0648  144.2073  164.2046 C.ar    1  UNL1        0.0001
      7 C         144.1478  143.9537  162.7286 C.ar    1  UNL1        0.0043
      8 C         143.9968  142.5591  162.1976 C.ar    1  UNL1        0.0516
      9 C         144.0317  142.0066  160.8034 C.2     1  UNL1        0.2493
     10 O         144.2422  142.7978  159.5466 O.2     1  UNL1       -0.2699
     11 N         143.8193  140.5241  160.8868 N.am    1  UNL1       -0.2676
     12 C         143.4553  139.5049  163.6672 C.2     1  UNL1        0.2428
     13 O         144.6408  139.1853  164.5288 O.2     1  UNL1       -0.2730
     14 N         142.0719  139.1690  164.1402 N.am    1  UNL1       -0.2989
     15 H         141.2939  139.3788  163.5746 H       1  UNL1        0.1498
     16 C         141.8741  138.5136  165.4748 C.3     1  UNL1        0.1164
     17 C         141.5916  139.3508  166.6869 C.ar    1  UNL1       -0.0024
     18 C         142.6789  139.6152  167.6860 C.ar    1  UNL1        0.0005
     19 C         142.3963  140.4524  168.8980 C.ar    1  UNL1        0.0369
     20 C         141.0264  141.0253  169.1111 C.ar    1  UNL1        0.1468
     21 C         139.9391  140.7609  168.1121 C.ar    1  UNL1        0.0369
     22 C         140.2218  139.9237  166.9000 C.ar    1  UNL1        0.0005
     23 O         140.7438  141.8625  170.3233 O.3     1  UNL1       -0.4045
     24 C         140.4718  143.3301  170.1743 C.3     1  UNL1        0.5753
     25 F         140.1997  144.7977  170.0254 F       1  UNL1       -0.1328
     26 F         139.2601  143.1941  171.0480 F       1  UNL1       -0.1328
     27 F         141.6835  143.4660  169.3006 F       1  UNL1       -0.1328
     28 C         143.7801  139.5724  159.7280 C.3     1  UNL1        0.1007
     29 C         142.8455  139.8242  158.5821 C.3     1  UNL1        0.0673
     30 C         142.3281  138.6743  157.7697 C.ar    1  UNL1        0.0607
     31 C         140.8571  138.5435  157.5070 C.ar    1  UNL1        0.0148
     32 C         140.3397  137.3936  156.6945 C.ar    1  UNL1        0.0028
     33 C         141.2933  136.3745  156.1448 C.ar    1  UNL1        0.0207
     34 C         142.7643  136.5054  156.4075 C.ar    1  UNL1        0.0984
     35 N         143.2817  137.6553  157.2199 N.ar    1  UNL1       -0.2481
@<TRIPOS>BOND
     1     1     2    1
     2     2    12    1
     3    12    13    2
     4    12    14   am
     5    14    16    1
     6    16    17    1
     7    17    18   ar
     8    18    19   ar
     9    19    20   ar
    10    20    23    1
    11    23    24    1
    12    24    25    1
    13    24    26    1
    14    24    27    1
    15    20    21   ar
    16    21    22   ar
    17     2     3    1
    18     3     4   ar
    19     4     5   ar
    20     5     6   ar
    21     6     7   ar
    22     7     8   ar
    23     8     9    1
    24     9    10    2
    25     9    11   am
    26    11    28    1
    27    28    29    1
    28    29    30    1
    29    30    31   ar
    30    31    32   ar
    31    32    33   ar
    32    33    34   ar
    33    34    35   ar
    34    11     2    1
    35    35    30   ar
    36    22    17   ar
    37     8     3   ar
    38    14    15    1
@<TRIPOS>MOLECULE
*****
 35 38 0 0 0
SMALL
GASTEIGER

@<TRIPOS>ATOM
      1 C         139.4873  138.3655  160.7058 C.3     1  UNL1        0.0339
      2 C         140.7904  138.6934  161.3726 C.3     1  UNL1        0.1482
      3 C         141.9259  139.0000  162.3035 C.ar    1  UNL1        0.0066
      4 C         141.9980  139.1053  163.7981 C.ar    1  UNL1       -0.0021
      5 C         143.3010  139.4332  164.4648 C.ar    1  UNL1       -0.0003
      6 C         144.5320  139.6558  163.6370 C.ar    1  UNL1        0.0001
      7 C         144.4599  139.5504  162.1424 C.ar    1  UNL1        0.0043
      8 C         143.1568  139.2226  161.4757 C.ar    1  UNL1        0.0516
      9 C         142.7821  139.0535  160.0332 C.2     1  UNL1        0.2493
     10 O         143.7074  139.1878  158.8603 O.2     1  UNL1       -0.2699
     11 N         141.3196  138.7264  159.9694 N.am    1  UNL1       -0.2676
     12 C         139.9889  138.5918  162.6363 C.2     1  UNL1        0.2428
     13 O         139.9405  137.2968  163.3917 O.2     1  UNL1       -0.2730
     14 N         139.2356  139.7853  163.1448 N.am    1  UNL1       -0.2989
     15 H         139.2674  140.6352  162.6490 H       1  UNL1        0.1498
     16 C         138.4341  139.6837  164.4085 C.3     1  UNL1        0.1164
     17 C         139.0065  140.1833  165.7019 C.ar    1  UNL1       -0.0024
     18 C         139.7996  141.4562  165.7290 C.ar    1  UNL1        0.0005
     19 C         140.3719  141.9557  167.0224 C.ar    1  UNL1        0.0369
     20 C         140.1512  141.1824  168.2887 C.ar    1  UNL1        0.1468
     21 C         139.3581  139.9095  168.2615 C.ar    1  UNL1        0.0369
     22 C         138.7857  139.4100  166.9681 C.ar    1  UNL1        0.0005
     23 O         140.7236  141.6819  169.5820 O.3     1  UNL1       -0.4045
     24 C         140.6683  143.1443  169.9115 C.3     1  UNL1        0.5753
     25 F         140.6130  144.6066  170.2410 F       1  UNL1       -0.1328
     26 F         139.2862  142.9669  170.4668 F       1  UNL1       -0.1328
     27 F         142.0504  143.3217  169.3562 F       1  UNL1       -0.1328
     28 C         140.5256  138.4763  158.7216 C.3     1  UNL1        0.1007
     29 C         141.2163  138.4234  157.3911 C.3     1  UNL1        0.0673
     30 C         141.5908  137.1000  156.7926 C.ar    1  UNL1        0.0607
     31 C         140.7385  136.4954  155.7164 C.ar    1  UNL1        0.0148
     32 C         141.1130  135.1719  155.1179 C.ar    1  UNL1        0.0028
     33 C         142.3399  134.4531  155.5955 C.ar    1  UNL1        0.0207
     34 C         143.1922  135.0577  156.6716 C.ar    1  UNL1        0.0984
     35 N         142.8177  136.3811  157.2702 N.ar    1  UNL1       -0.2481
@<TRIPOS>BOND
     1     1     2    1
     2     2    12    1
     3    12    13    2
     4    12    14   am
     5    14    16    1
     6    16    17    1
     7    17    18   ar
     8    18    19   ar
     9    19    20   ar
    10    20    23    1
    11    23    24    1
    12    24    25    1
    13    24    26    1
    14    24    27    1
    15    20    21   ar
    16    21    22   ar
    17     2     3    1
    18     3     4   ar
    19     4     5   ar
    20     5     6   ar
    21     6     7   ar
    22     7     8   ar
    23     8     9    1
    24     9    10    2
    25     9    11   am
    26    11    28    1
    27    28    29    1
    28    29    30    1
    29    30    31   ar
    30    31    32   ar
    31    32    33   ar
    32    33    34   ar
    33    34    35   ar
    34    11     2    1
    35    35    30   ar
    36    22    17   ar
    37     8     3   ar
    38    14    15    1
@<TRIPOS>MOLECULE
*****
 35 38 0 0 0
SMALL
GASTEIGER

@<TRIPOS>ATOM
      1 C         139.3058  138.4930  161.8860 C.3     1  UNL1        0.0339
      2 C         140.6941  138.7192  162.4070 C.3     1  UNL1        0.1482
      3 C         141.9384  138.9742  163.2051 C.ar    1  UNL1        0.0066
      4 C         142.1588  139.2275  164.6669 C.ar    1  UNL1       -0.0021
      5 C         143.5471  139.4537  165.1879 C.ar    1  UNL1       -0.0003
      6 C         144.7150  139.4267  164.2469 C.ar    1  UNL1        0.0001
      7 C         144.4945  139.1733  162.7850 C.ar    1  UNL1        0.0043
      8 C         143.1062  138.9471  162.2641 C.ar    1  UNL1        0.0516
      9 C         142.5837  138.6754  160.8845 C.2     1  UNL1        0.2493
     10 O         143.4074  138.5641  159.6359 O.2     1  UNL1       -0.2699
     11 N         141.0929  138.5346  160.9728 N.am    1  UNL1       -0.2676
     12 C         140.0051  138.8566  163.7322 C.2     1  UNL1        0.2428
     13 O         139.9250  137.6816  164.6613 O.2     1  UNL1       -0.2730
     14 N         139.3960  140.1689  164.1285 N.am    1  UNL1       -0.2989
     15 H         139.4485  140.9401  163.5187 H       1  UNL1        0.1498
     16 C         138.7069  140.3063  165.4537 C.3     1  UNL1        0.1164
     17 C         139.4800  140.7559  166.6580 C.ar    1  UNL1       -0.0024
     18 C         139.4380  139.9478  167.9210 C.ar    1  UNL1        0.0005
     19 C         140.2110  140.3975  169.1251 C.ar    1  UNL1        0.0369
     20 C         141.0262  141.6554  169.0663 C.ar    1  UNL1        0.1468
     21 C         141.0682  142.4635  167.8033 C.ar    1  UNL1        0.0369
     22 C         140.2951  142.0138  166.5992 C.ar    1  UNL1        0.0005
     23 O         141.7993  142.1051  170.2705 O.3     1  UNL1       -0.4045
     24 C         143.2628  142.4115  170.1509 C.3     1  UNL1        0.5753
     25 F         144.7263  142.7179  170.0312 F       1  UNL1       -0.1328
     26 F         143.5012  141.0475  169.5740 F       1  UNL1       -0.1328
     27 F         143.0244  143.7755  170.7277 F       1  UNL1       -0.1328
     28 C         140.1641  138.2577  159.8280 C.3     1  UNL1        0.1007
     29 C         140.4482  138.8382  158.4744 C.3     1  UNL1        0.0673
     30 C         140.3721  137.9688  157.2545 C.ar    1  UNL1        0.0607
     31 C         141.5507  137.1307  156.8561 C.ar    1  UNL1        0.0148
     32 C         141.4746  136.2613  155.6361 C.ar    1  UNL1        0.0028
     33 C         140.2200  136.2299  154.8146 C.ar    1  UNL1        0.0207
     34 C         139.0415  137.0679  155.2130 C.ar    1  UNL1        0.0984
     35 N         139.1175  137.9374  156.4329 N.ar    1  UNL1       -0.2481
@<TRIPOS>BOND
     1     1     2    1
     2     2    12    1
     3    12    13    2
     4    12    14   am
     5    14    16    1
     6    16    17    1
     7    17    18   ar
     8    18    19   ar
     9    19    20   ar
    10    20    23    1
    11    23    24    1
    12    24    25    1
    13    24    26    1
    14    24    27    1
    15    20    21   ar
    16    21    22   ar
    17     2     3    1
    18     3     4   ar
    19     4     5   ar
    20     5     6   ar
    21     6     7   ar
    22     7     8   ar
    23     8     9    1
    24     9    10    2
    25     9    11   am
    26    11    28    1
    27    28    29    1
    28    29    30    1
    29    30    31   ar
    30    31    32   ar
    31    32    33   ar
    32    33    34   ar
    33    34    35   ar
    34    11     2    1
    35    35    30   ar
    36    22    17   ar
    37     8     3   ar
    38    14    15    1
@<TRIPOS>MOLECULE
*****
 35 38 0 0 0
SMALL
GASTEIGER

@<TRIPOS>ATOM
      1 C         138.0563  141.2154  162.9375 C.3     1  UNL1        0.0339
      2 C         138.6170  142.1288  161.8879 C.3     1  UNL1        0.1482
      3 C         139.2598  143.2196  161.0836 C.ar    1  UNL1        0.0066
      4 C         139.9335  144.4984  161.4845 C.ar    1  UNL1       -0.0021
      5 C         140.4942  145.4117  160.4350 C.ar    1  UNL1       -0.0003
      6 C         140.3810  145.0463  158.9846 C.ar    1  UNL1        0.0001
      7 C         139.7073  143.7675  158.5837 C.ar    1  UNL1        0.0043
      8 C         139.1467  142.8542  159.6332 C.ar    1  UNL1        0.0516
      9 C         138.4340  141.5375  159.5412 C.2     1  UNL1        0.2493
     10 O         138.1062  140.7989  158.2775 O.2     1  UNL1       -0.2699
     11 N         138.1066  141.0892  160.9347 N.am    1  UNL1       -0.2676
     12 C         139.0102  142.9775  163.0606 C.2     1  UNL1        0.2428
     13 O         138.0896  144.0572  163.5473 O.2     1  UNL1       -0.2730
     14 N         140.3240  142.7464  163.7467 N.am    1  UNL1       -0.2989
     15 H         140.9282  142.0377  163.4273 H       1  UNL1        0.1498
     16 C         140.7172  143.5950  164.9194 C.3     1  UNL1        0.1164
     17 C         141.1001  142.9490  166.2178 C.ar    1  UNL1       -0.0024
     18 C         140.1654  143.0085  167.3895 C.ar    1  UNL1        0.0005
     19 C         140.5483  142.3625  168.6879 C.ar    1  UNL1        0.0369
     20 C         141.8659  141.6568  168.8147 C.ar    1  UNL1        0.1468
     21 C         142.8006  141.5972  167.6430 C.ar    1  UNL1        0.0369
     22 C         142.4176  142.2433  166.3446 C.ar    1  UNL1        0.0005
     23 O         142.2487  141.0107  170.1132 O.3     1  UNL1       -0.4045
     24 C         142.4565  139.5267  170.1800 C.3     1  UNL1        0.5753
     25 F         142.6642  138.0426  170.2467 F       1  UNL1       -0.1328
     26 F         143.6557  139.7340  171.0569 F       1  UNL1       -0.1328
     27 F         141.2573  139.3193  169.3030 F       1  UNL1       -0.1328
     28 C         137.3939  139.8236  161.3092 C.3     1  UNL1        0.1007
     29 C         138.0829  138.5004  161.1527 C.3     1  UNL1        0.0673
     30 C         139.1647  138.1001  162.1116 C.ar    1  UNL1        0.0607
     31 C         138.8223  137.7754  163.5355 C.ar    1  UNL1        0.0148
     32 C         139.9041  137.3751  164.4944 C.ar    1  UNL1        0.0028
     33 C         141.3283  137.2995  164.0294 C.ar    1  UNL1        0.0207
     34 C         141.6706  137.6243  162.6056 C.ar    1  UNL1        0.0984
     35 N         140.5888  138.0246  161.6467 N.ar    1  UNL1       -0.2481
@<TRIPOS>BOND
     1     1     2    1
     2     2    12    1
     3    12    13    2
     4    12    14   am
     5    14    16    1
     6    16    17    1
     7    17    18   ar
     8    18    19   ar
     9    19    20   ar
    10    20    23    1
    11    23    24    1
    12    24    25    1
    13    24    26    1
    14    24    27    1
    15    20    21   ar
    16    21    22   ar
    17     2     3    1
    18     3     4   ar
    19     4     5   ar
    20     5     6   ar
    21     6     7   ar
    22     7     8   ar
    23     8     9    1
    24     9    10    2
    25     9    11   am
    26    11    28    1
    27    28    29    1
    28    29    30    1
    29    30    31   ar
    30    31    32   ar
    31    32    33   ar
    32    33    34   ar
    33    34    35   ar
    34    11     2    1
    35    35    30   ar
    36    22    17   ar
    37     8     3   ar
    38    14    15    1
@<TRIPOS>MOLECULE
*****
 35 38 0 0 0
SMALL
GASTEIGER

@<TRIPOS>ATOM
      1 C         143.7370  139.0280  161.7191 C.3     1  UNL1        0.0339
      2 C         143.7996  140.4125  162.2931 C.3     1  UNL1        0.1482
      3 C         143.8246  141.6494  163.1412 C.ar    1  UNL1        0.0066
      4 C         143.7043  141.8534  164.6224 C.ar    1  UNL1       -0.0021
      5 C         143.7670  143.2378  165.1963 C.ar    1  UNL1       -0.0003
      6 C         143.9500  144.4183  164.2890 C.ar    1  UNL1        0.0001
      7 C         144.0702  144.2143  162.8079 C.ar    1  UNL1        0.0043
      8 C         144.0075  142.8299  162.2340 C.ar    1  UNL1        0.0516
      9 C         144.0956  142.3224  160.8252 C.2     1  UNL1        0.2493
     10 O         144.2799  143.1617  159.5957 O.2     1  UNL1       -0.2699
     11 N         143.9672  140.8284  160.8617 N.am    1  UNL1       -0.2676
     12 C         143.6190  139.7071  163.6045 C.2     1  UNL1        0.2428
     13 O         144.8098  139.4117  164.4675 O.2     1  UNL1       -0.2730
     14 N         142.2475  139.2972  164.0530 N.am    1  UNL1       -0.2989
     15 H         141.4659  139.4911  163.4866 H       1  UNL1        0.1498
     16 C         142.0669  138.5918  165.3644 C.3     1  UNL1        0.1164
     17 C         141.7579  139.3792  166.6032 C.ar    1  UNL1       -0.0024
     18 C         140.4325  140.0676  166.7432 C.ar    1  UNL1        0.0005
     19 C         140.1236  140.8549  167.9820 C.ar    1  UNL1        0.0369
     20 C         141.1400  140.9540  169.0808 C.ar    1  UNL1        0.1468
     21 C         142.4654  140.2656  168.9407 C.ar    1  UNL1        0.0369
     22 C         142.7742  139.4783  167.7019 C.ar    1  UNL1        0.0005
     23 O         140.8310  141.7414  170.3195 O.3     1  UNL1       -0.4045
     24 C         140.5451  143.2107  170.2224 C.3     1  UNL1        0.5753
     25 F         140.2592  144.6800  170.1254 F       1  UNL1       -0.1328
     26 F         141.9146  143.4397  169.6550 F       1  UNL1       -0.1328
     27 F         139.1756  142.9817  170.7899 F       1  UNL1       -0.1328
     28 C         144.0004  139.9113  159.6752 C.3     1  UNL1        0.1007
     29 C         143.3070  140.3037  158.4043 C.3     1  UNL1        0.0673
     30 C         144.0594  140.2974  157.1067 C.ar    1  UNL1        0.0607
     31 C         143.5547  139.4851  155.9510 C.ar    1  UNL1        0.0148
     32 C         144.3071  139.4788  154.6534 C.ar    1  UNL1        0.0028
     33 C         145.5642  140.2848  154.5114 C.ar    1  UNL1        0.0207
     34 C         146.0689  141.0971  155.6670 C.ar    1  UNL1        0.0984
     35 N         145.3165  141.1034  156.9646 N.ar    1  UNL1       -0.2481
@<TRIPOS>BOND
     1     1     2    1
     2     2    12    1
     3    12    13    2
     4    12    14   am
     5    14    16    1
     6    16    17    1
     7    17    18   ar
     8    18    19   ar
     9    19    20   ar
    10    20    23    1
    11    23    24    1
    12    24    25    1
    13    24    26    1
    14    24    27    1
    15    20    21   ar
    16    21    22   ar
    17     2     3    1
    18     3     4   ar
    19     4     5   ar
    20     5     6   ar
    21     6     7   ar
    22     7     8   ar
    23     8     9    1
    24     9    10    2
    25     9    11   am
    26    11    28    1
    27    28    29    1
    28    29    30    1
    29    30    31   ar
    30    31    32   ar
    31    32    33   ar
    32    33    34   ar
    33    34    35   ar
    34    11     2    1
    35    35    30   ar
    36    22    17   ar
    37     8     3   ar
    38    14    15    1
@<TRIPOS>MOLECULE
*****
 35 38 0 0 0
SMALL
GASTEIGER

@<TRIPOS>ATOM
      1 C         138.4285  139.1640  161.8795 C.3     1  UNL1        0.0339
      2 C         138.6407  140.5675  162.3645 C.3     1  UNL1        0.1482
      3 C         138.9014  141.8328  163.1268 C.ar    1  UNL1        0.0066
      4 C         139.2291  142.0867  164.5684 C.ar    1  UNL1       -0.0021
      5 C         139.4412  143.4901  165.0533 C.ar    1  UNL1       -0.0003
      6 C         139.3257  144.6397  164.0967 C.ar    1  UNL1        0.0001
      7 C         138.9981  144.3859  162.6551 C.ar    1  UNL1        0.0043
      8 C         138.7859  142.9824  162.1702 C.ar    1  UNL1        0.0516
      9 C         138.4538  142.4276  160.8167 C.2     1  UNL1        0.2493
     10 O         138.2477  143.2252  159.5632 O.2     1  UNL1       -0.2699
     11 N         138.3640  140.9351  160.9368 N.am    1  UNL1       -0.2676
     12 C         138.8730  139.9065  163.6908 C.2     1  UNL1        0.2428
     13 O         137.7529  139.8021  164.6831 O.2     1  UNL1       -0.2730
     14 N         140.2253  139.3500  164.0249 N.am    1  UNL1       -0.2989
     15 H         140.9604  139.4185  163.3736 H       1  UNL1        0.1498
     16 C         140.4576  138.6890  165.3512 C.3     1  UNL1        0.1164
     17 C         140.5938  139.5224  166.5909 C.ar    1  UNL1       -0.0024
     18 C         139.4510  139.6214  167.5574 C.ar    1  UNL1        0.0005
     19 C         139.5874  140.4548  168.7970 C.ar    1  UNL1        0.0369
     20 C         140.8665  141.1893  169.0702 C.ar    1  UNL1        0.1468
     21 C         142.0093  141.0903  168.1036 C.ar    1  UNL1        0.0369
     22 C         141.8729  140.2569  166.8640 C.ar    1  UNL1        0.0005
     23 O         141.0027  142.0228  170.3099 O.3     1  UNL1       -0.4045
     24 C         140.6168  143.4721  170.2854 C.3     1  UNL1        0.5753
     25 F         140.2309  144.9214  170.2610 F       1  UNL1       -0.1328
     26 F         142.0185  143.8388  169.8970 F       1  UNL1       -0.1328
     27 F         139.2151  143.1054  170.6738 F       1  UNL1       -0.1328
     28 C         138.0524  139.9782  159.8245 C.3     1  UNL1        0.1007
     29 C         138.8120  140.0558  158.5335 C.3     1  UNL1        0.0673
     30 C         140.0556  139.2386  158.3447 C.ar    1  UNL1        0.0607
     31 C         141.2259  139.4307  159.2631 C.ar    1  UNL1        0.0148
     32 C         142.4695  138.6135  159.0743 C.ar    1  UNL1        0.0028
     33 C         142.5427  137.6041  157.9671 C.ar    1  UNL1        0.0207
     34 C         141.3724  137.4120  157.0487 C.ar    1  UNL1        0.0984
     35 N         140.1288  138.2292  157.2375 N.ar    1  UNL1       -0.2481
@<TRIPOS>BOND
     1     1     2    1
     2     2    12    1
     3    12    13    2
     4    12    14   am
     5    14    16    1
     6    16    17    1
     7    17    18   ar
     8    18    19   ar
     9    19    20   ar
    10    20    23    1
    11    23    24    1
    12    24    25    1
    13    24    26    1
    14    24    27    1
    15    20    21   ar
    16    21    22   ar
    17     2     3    1
    18     3     4   ar
    19     4     5   ar
    20     5     6   ar
    21     6     7   ar
    22     7     8   ar
    23     8     9    1
    24     9    10    2
    25     9    11   am
    26    11    28    1
    27    28    29    1
    28    29    30    1
    29    30    31   ar
    30    31    32   ar
    31    32    33   ar
    32    33    34   ar
    33    34    35   ar
    34    11     2    1
    35    35    30   ar
    36    22    17   ar
    37     8     3   ar
    38    14    15    1
@<TRIPOS>MOLECULE
*****
 35 38 0 0 0
SMALL
GASTEIGER

@<TRIPOS>ATOM
      1 C         138.3240  139.5564  161.6458 C.3     1  UNL1        0.0339
      2 C         138.7865  140.8869  162.1615 C.3     1  UNL1        0.1482
      3 C         139.2696  142.0670  162.9514 C.ar    1  UNL1        0.0066
      4 C         139.6287  142.2267  164.3990 C.ar    1  UNL1       -0.0021
      5 C         140.0912  143.5572  164.9145 C.ar    1  UNL1       -0.0003
      6 C         140.1946  144.7280  163.9825 C.ar    1  UNL1        0.0001
      7 C         139.8355  144.5682  162.5349 C.ar    1  UNL1        0.0043
      8 C         139.3730  143.2377  162.0194 C.ar    1  UNL1        0.0516
      9 C         138.9538  142.7812  160.6534 C.2     1  UNL1        0.2493
     10 O         138.9055  143.6288  159.4168 O.2     1  UNL1       -0.2699
     11 N         138.5913  141.3283  160.7412 N.am    1  UNL1       -0.2676
     12 C         138.8850  140.1674  163.4739 C.2     1  UNL1        0.2428
     13 O         137.7320  140.1952  164.4329 O.2     1  UNL1       -0.2730
     14 N         140.1366  139.4199  163.8274 N.am    1  UNL1       -0.2989
     15 H         140.8934  139.4016  163.1980 H       1  UNL1        0.1498
     16 C         140.2351  138.7003  165.1398 C.3     1  UNL1        0.1164
     17 C         140.4114  139.4782  166.4102 C.ar    1  UNL1       -0.0024
     18 C         139.2818  139.5765  167.3923 C.ar    1  UNL1        0.0005
     19 C         139.4582  140.3543  168.6626 C.ar    1  UNL1        0.0369
     20 C         140.7640  141.0339  168.9509 C.ar    1  UNL1        0.1468
     21 C         141.8935  140.9356  167.9688 C.ar    1  UNL1        0.0369
     22 C         141.7172  140.1577  166.6985 C.ar    1  UNL1        0.0005
     23 O         140.9402  141.8118  170.2213 O.3     1  UNL1       -0.4045
     24 C         140.5779  143.2667  170.2663 C.3     1  UNL1        0.5753
     25 F         140.2156  144.7216  170.3113 F       1  UNL1       -0.1328
     26 F         139.1856  142.9068  170.6927 F       1  UNL1       -0.1328
     27 F         141.9703  143.6266  169.8399 F       1  UNL1       -0.1328
     28 C         138.1170  140.4679  159.6078 C.3     1  UNL1        0.1007
     29 C         138.5379  140.7798  158.2023 C.3     1  UNL1        0.0673
     30 C         137.5130  141.1860  157.1851 C.ar    1  UNL1        0.0607
     31 C         137.7108  142.4353  156.3788 C.ar    1  UNL1        0.0148
     32 C         136.6860  142.8416  155.3616 C.ar    1  UNL1        0.0028
     33 C         135.4633  141.9985  155.1507 C.ar    1  UNL1        0.0207
     34 C         135.2656  140.7492  155.9571 C.ar    1  UNL1        0.0984
     35 N         136.2904  140.3430  156.9743 N.ar    1  UNL1       -0.2481
@<TRIPOS>BOND
     1     1     2    1
     2     2    12    1
     3    12    13    2
     4    12    14   am
     5    14    16    1
     6    16    17    1
     7    17    18   ar
     8    18    19   ar
     9    19    20   ar
    10    20    23    1
    11    23    24    1
    12    24    25    1
    13    24    26    1
    14    24    27    1
    15    20    21   ar
    16    21    22   ar
    17     2     3    1
    18     3     4   ar
    19     4     5   ar
    20     5     6   ar
    21     6     7   ar
    22     7     8   ar
    23     8     9    1
    24     9    10    2
    25     9    11   am
    26    11    28    1
    27    28    29    1
    28    29    30    1
    29    30    31   ar
    30    31    32   ar
    31    32    33   ar
    32    33    34   ar
    33    34    35   ar
    34    11     2    1
    35    35    30   ar
    36    22    17   ar
    37     8     3   ar
    38    14    15    1
