@<TRIPOS>MOLECULE
*****
 34 38 0 0 0
SMALL
GASTEIGER

@<TRIPOS>ATOM
      1 N         139.8927  138.2916  161.9144 N.3     1  UNL1       -0.2703
      2 C         139.1287  139.0431  162.9638 C.3     1  UNL1        0.0727
      3 C         139.7550  139.3104  164.3003 C.3     1  UNL1        0.0260
      4 C         141.1454  138.8262  164.5873 C.3     1  UNL1        0.0737
      5 C         141.9094  138.0746  163.5378 C.3     1  UNL1        0.0260
      6 C         141.2831  137.8073  162.2014 C.3     1  UNL1        0.0727
      7 C         142.5198  138.4060  165.0168 C.3     1  UNL1        0.0306
      8 C         142.7312  138.8807  166.4240 C.3     1  UNL1        0.1001
      9 N         141.4873  139.5943  166.8641 N.am    1  UNL1       -0.2427
     10 C         140.5073  139.5605  165.7291 C.2     1  UNL1        0.2296
     11 O         139.1308  140.1565  165.7347 O.2     1  UNL1       -0.2745
     12 C         141.2629  140.2299  168.2041 C.ar    1  UNL1        0.1551
     13 C         142.1749  141.3224  168.6781 C.ar    1  UNL1        0.1134
     14 N         141.9505  141.9580  170.0181 N.ar    1  UNL1       -0.2885
     15 C         142.8625  143.0505  170.4922 C.3     1  UNL1        0.1337
     16 C         140.8141  141.5012  170.8841 C.ar    1  UNL1        0.2804
     17 O         140.5897  142.1369  172.2241 O.2     1  UNL1       -0.2653
     18 C         139.9020  140.4087  170.4101 C.ar    1  UNL1        0.1609
     19 N         140.1265  139.7731  169.0700 N.ar    1  UNL1       -0.2222
     20 C         139.2664  138.0243  160.5778 C.3     1  UNL1        0.1063
     21 C         139.4262  139.0150  159.4630 C.3     1  UNL1        0.1483
     22 O         139.3996  138.5503  158.0370 O.3     1  UNL1       -0.3786
     23 H         139.5158  139.3112  157.4468 H       1  UNL1        0.2108
     24 C         142.1810  140.2028  159.4874 C.3     1  UNL1        0.0306
     25 C         140.9900  141.0644  159.7863 C.ar    1  UNL1       -0.0238
     26 C         139.6127  140.4705  159.7741 C.ar    1  UNL1        0.0015
     27 C         138.4218  141.3321  160.0730 C.ar    1  UNL1       -0.0020
     28 C         138.6082  142.7876  160.3841 C.ar    1  UNL1        0.0060
     29 C         139.9855  143.3815  160.3963 C.ar    1  UNL1        0.0748
     30 C         141.1764  142.5199  160.0974 C.ar    1  UNL1        0.0233
     31 C         142.4031  143.3790  160.1826 C.3     1  UNL1        0.2352
     32 O         141.9704  144.7715  160.5341 O.3     1  UNL1       -0.4404
     33 C         140.4762  144.7730  160.6662 C.2     1  UNL1        0.3413
     34 O         139.6225  145.9580  161.0082 O.2     1  UNL1       -0.2449
@<TRIPOS>BOND
     1    24    25    1
     2    25    26   ar
     3    26    21    1
     4    21    22    1
     5    21    20    1
     6    20     1    1
     7     1     2    1
     8     2     3    1
     9     3     4    1
    10     4     5    1
    11     5     6    1
    12     4     7    1
    13     7     8    1
    14     8     9    1
    15     9    12    1
    16    12    13   ar
    17    13    14   ar
    18    14    15    1
    19    14    16   ar
    20    16    17    2
    21    16    18   ar
    22    18    19   ar
    23     9    10   am
    24    10    11    2
    25    26    27   ar
    26    27    28   ar
    27    28    29   ar
    28    29    30   ar
    29    30    31    1
    30    31    32    1
    31    32    33    1
    32    33    34    2
    33    30    25   ar
    34     6     1    1
    35    19    12   ar
    36    33    29    1
    37    10     4    1
    38    22    23    1
@<TRIPOS>MOLECULE
*****
 34 38 0 0 0
SMALL
GASTEIGER

@<TRIPOS>ATOM
      1 N         138.5902  139.2239  165.0740 N.3     1  UNL1       -0.2703
      2 C         138.0450  140.4104  164.3358 C.3     1  UNL1        0.0727
      3 C         138.0695  140.4367  162.8363 C.3     1  UNL1        0.0260
      4 C         138.6392  139.2766  162.0749 C.3     1  UNL1        0.0737
      5 C         139.1844  138.0902  162.8132 C.3     1  UNL1        0.0260
      6 C         139.1599  138.0638  164.3127 C.3     1  UNL1        0.0727
      7 C         139.1743  138.1960  161.1827 C.3     1  UNL1        0.0306
      8 C         138.9987  138.6398  159.7606 C.3     1  UNL1        0.1001
      9 N         138.3549  139.9946  159.7739 N.am    1  UNL1       -0.2427
     10 C         138.1328  140.3882  161.2042 C.2     1  UNL1        0.2296
     11 O         137.5130  141.6685  161.6803 O.2     1  UNL1       -0.2745
     12 C         137.9964  140.8123  158.5687 C.ar    1  UNL1        0.1551
     13 C         138.7930  142.0370  158.2292 C.ar    1  UNL1        0.1134
     14 N         138.4344  142.8547  157.0238 N.ar    1  UNL1       -0.2885
     15 C         139.2311  144.0795  156.6843 C.3     1  UNL1        0.1337
     16 C         137.2792  142.4476  156.1580 C.ar    1  UNL1        0.2804
     17 O         136.9207  143.2653  154.9526 O.2     1  UNL1       -0.2653
     18 C         136.4825  141.2228  156.4974 C.ar    1  UNL1        0.1609
     19 N         136.8412  140.4052  157.7028 N.ar    1  UNL1       -0.2222
     20 C         138.5658  139.1975  166.5736 C.3     1  UNL1        0.1063
     21 C         139.7345  139.7247  167.3522 C.3     1  UNL1        0.1483
     22 O         139.6566  139.8239  168.8469 O.3     1  UNL1       -0.3786
     23 H         140.4900  140.1815  169.1910 H       1  UNL1        0.2108
     24 C         140.0779  142.5857  166.5175 C.3     1  UNL1        0.0306
     25 C         141.1528  141.5830  166.2187 C.ar    1  UNL1       -0.0238
     26 C         140.9811  140.1526  166.6360 C.ar    1  UNL1        0.0015
     27 C         142.0561  139.1499  166.3373 C.ar    1  UNL1       -0.0020
     28 C         143.3027  139.5778  165.6212 C.ar    1  UNL1        0.0060
     29 C         143.4744  141.0083  165.2039 C.ar    1  UNL1        0.0748
     30 C         142.3995  142.0109  165.5026 C.ar    1  UNL1        0.0233
     31 C         142.8461  143.3411  164.9725 C.3     1  UNL1        0.2352
     32 O         144.1971  143.1607  164.3462 O.3     1  UNL1       -0.4404
     33 C         144.5854  141.7189  164.4892 C.2     1  UNL1        0.3413
     34 O         145.8607  141.0968  164.0028 O.2     1  UNL1       -0.2449
@<TRIPOS>BOND
     1    24    25    1
     2    25    26   ar
     3    26    21    1
     4    21    22    1
     5    21    20    1
     6    20     1    1
     7     1     2    1
     8     2     3    1
     9     3     4    1
    10     4     5    1
    11     5     6    1
    12     4     7    1
    13     7     8    1
    14     8     9    1
    15     9    12    1
    16    12    13   ar
    17    13    14   ar
    18    14    15    1
    19    14    16   ar
    20    16    17    2
    21    16    18   ar
    22    18    19   ar
    23     9    10   am
    24    10    11    2
    25    26    27   ar
    26    27    28   ar
    27    28    29   ar
    28    29    30   ar
    29    30    31    1
    30    31    32    1
    31    32    33    1
    32    33    34    2
    33    30    25   ar
    34     6     1    1
    35    19    12   ar
    36    33    29    1
    37    10     4    1
    38    22    23    1
@<TRIPOS>MOLECULE
*****
 34 38 0 0 0
SMALL
GASTEIGER

@<TRIPOS>ATOM
      1 N         141.9745  138.0364  162.2079 N.3     1  UNL1       -0.2703
      2 C         142.6961  138.7415  163.3178 C.3     1  UNL1        0.0727
      3 C         141.9592  139.1255  164.5666 C.3     1  UNL1        0.0260
      4 C         140.5005  138.8043  164.7054 C.3     1  UNL1        0.0737
      5 C         139.7789  138.0991  163.5955 C.3     1  UNL1        0.0260
      6 C         140.5159  137.7152  162.3468 C.3     1  UNL1        0.0727
      7 C         139.0490  138.5506  164.9858 C.3     1  UNL1        0.0306
      8 C         138.7370  139.0989  166.3468 C.3     1  UNL1        0.1001
      9 N         139.9959  139.6915  166.9075 N.am    1  UNL1       -0.2427
     10 C         141.0857  139.5094  165.8931 C.2     1  UNL1        0.2296
     11 O         142.5106  139.9543  166.0403 O.2     1  UNL1       -0.2745
     12 C         140.1395  140.3504  168.2472 C.ar    1  UNL1        0.1551
     13 C         140.2428  141.8439  168.3413 C.ar    1  UNL1        0.1134
     14 N         140.3864  142.5029  169.6811 N.ar    1  UNL1       -0.2885
     15 C         140.4896  143.9963  169.7752 C.3     1  UNL1        0.1337
     16 C         140.4269  141.6684  170.9269 C.ar    1  UNL1        0.2804
     17 O         140.5706  142.3273  172.2667 O.2     1  UNL1       -0.2653
     18 C         140.3237  140.1748  170.8329 C.ar    1  UNL1        0.1609
     19 N         140.1800  139.5159  169.4930 N.ar    1  UNL1       -0.2222
     20 C         142.7114  137.6523  160.9591 C.3     1  UNL1        0.1063
     21 C         142.7003  138.5670  159.7704 C.3     1  UNL1        0.1483
     22 O         143.1916  138.0755  158.4411 O.3     1  UNL1       -0.3786
     23 H         143.1166  138.7865  157.7856 H       1  UNL1        0.2108
     24 C         139.8485  139.2149  159.1010 C.3     1  UNL1        0.0306
     25 C         140.7719  140.2973  159.5762 C.ar    1  UNL1       -0.0238
     26 C         142.1977  139.9734  159.9108 C.ar    1  UNL1        0.0015
     27 C         143.1211  141.0558  160.3860 C.ar    1  UNL1       -0.0020
     28 C         142.6186  142.4621  160.5265 C.ar    1  UNL1        0.0060
     29 C         141.1928  142.7860  160.1918 C.ar    1  UNL1        0.0748
     30 C         140.2694  141.7036  159.7167 C.ar    1  UNL1        0.0233
     31 C         138.9253  142.3192  159.4632 C.3     1  UNL1        0.2352
     32 O         139.0179  143.7821  159.7817 O.3     1  UNL1       -0.4404
     33 C         140.4193  144.0706  160.2320 C.2     1  UNL1        0.3413
     34 O         140.9534  145.4087  160.6493 O.2     1  UNL1       -0.2449
@<TRIPOS>BOND
     1    24    25    1
     2    25    26   ar
     3    26    21    1
     4    21    22    1
     5    21    20    1
     6    20     1    1
     7     1     2    1
     8     2     3    1
     9     3     4    1
    10     4     5    1
    11     5     6    1
    12     4     7    1
    13     7     8    1
    14     8     9    1
    15     9    12    1
    16    12    13   ar
    17    13    14   ar
    18    14    15    1
    19    14    16   ar
    20    16    17    2
    21    16    18   ar
    22    18    19   ar
    23     9    10   am
    24    10    11    2
    25    26    27   ar
    26    27    28   ar
    27    28    29   ar
    28    29    30   ar
    29    30    31    1
    30    31    32    1
    31    32    33    1
    32    33    34    2
    33    30    25   ar
    34     6     1    1
    35    19    12   ar
    36    33    29    1
    37    10     4    1
    38    22    23    1
@<TRIPOS>MOLECULE
*****
 34 38 0 0 0
SMALL
GASTEIGER

@<TRIPOS>ATOM
      1 N         144.9690  141.5763  163.1903 N.3     1  UNL1       -0.2703
      2 C         144.7462  141.9159  161.7463 C.3     1  UNL1        0.0727
      3 C         144.1703  140.8907  160.8150 C.3     1  UNL1        0.0260
      4 C         143.8173  139.5259  161.3277 C.3     1  UNL1        0.0737
      5 C         144.0402  139.1863  162.7716 C.3     1  UNL1        0.0260
      6 C         144.6160  140.2115  163.7029 C.3     1  UNL1        0.0727
      7 C         143.4181  138.1272  161.6942 C.3     1  UNL1        0.0306
      8 C         142.8936  137.4562  160.4593 C.3     1  UNL1        0.1001
      9 N         142.9687  138.4403  159.3297 N.am    1  UNL1       -0.2427
     10 C         143.5396  139.7193  159.8663 C.2     1  UNL1        0.2296
     11 O         143.7890  140.9720  159.0798 O.2     1  UNL1       -0.2745
     12 C         142.5470  138.1893  157.9123 C.ar    1  UNL1        0.1551
     13 C         141.1156  137.8657  157.6018 C.ar    1  UNL1        0.1134
     14 N         140.6939  137.6147  156.1843 N.ar    1  UNL1       -0.2885
     15 C         139.2625  137.2911  155.8738 C.3     1  UNL1        0.1337
     16 C         141.7036  137.6872  155.0774 C.ar    1  UNL1        0.2804
     17 O         141.2818  137.4362  153.6599 O.2     1  UNL1       -0.2653
     18 C         143.1350  138.0108  155.3879 C.ar    1  UNL1        0.1609
     19 N         143.5567  138.2618  156.8054 N.ar    1  UNL1       -0.2222
     20 C         145.5449  142.6015  164.1216 C.3     1  UNL1        0.1063
     21 C         144.6338  143.4611  164.9467 C.3     1  UNL1        0.1483
     22 O         145.1429  144.1039  166.2027 O.3     1  UNL1       -0.3786
     23 H         144.4320  144.6214  166.6123 H       1  UNL1        0.2108
     24 C         142.4220  141.8870  166.2236 C.3     1  UNL1        0.0306
     25 C         142.1075  142.8908  165.1543 C.ar    1  UNL1       -0.0238
     26 C         143.2134  143.6779  164.5159 C.ar    1  UNL1        0.0015
     27 C         142.8989  144.6817  163.4466 C.ar    1  UNL1       -0.0020
     28 C         141.4786  144.8985  163.0157 C.ar    1  UNL1        0.0060
     29 C         140.3728  144.1115  163.6542 C.ar    1  UNL1        0.0748
     30 C         140.6872  143.1076  164.7235 C.ar    1  UNL1        0.0233
     31 C         139.3973  142.4843  165.1679 C.3     1  UNL1        0.2352
     32 O         138.2856  143.1029  164.3732 O.3     1  UNL1       -0.4404
     33 C         138.8885  144.1085  163.4377 C.2     1  UNL1        0.3413
     34 O         138.1387  144.9615  162.4578 O.2     1  UNL1       -0.2449
@<TRIPOS>BOND
     1    24    25    1
     2    25    26   ar
     3    26    21    1
     4    21    22    1
     5    21    20    1
     6    20     1    1
     7     1     2    1
     8     2     3    1
     9     3     4    1
    10     4     5    1
    11     5     6    1
    12     4     7    1
    13     7     8    1
    14     8     9    1
    15     9    12    1
    16    12    13   ar
    17    13    14   ar
    18    14    15    1
    19    14    16   ar
    20    16    17    2
    21    16    18   ar
    22    18    19   ar
    23     9    10   am
    24    10    11    2
    25    26    27   ar
    26    27    28   ar
    27    28    29   ar
    28    29    30   ar
    29    30    31    1
    30    31    32    1
    31    32    33    1
    32    33    34    2
    33    30    25   ar
    34     6     1    1
    35    19    12   ar
    36    33    29    1
    37    10     4    1
    38    22    23    1
@<TRIPOS>MOLECULE
*****
 34 38 0 0 0
SMALL
GASTEIGER

@<TRIPOS>ATOM
      1 N         144.8513  141.7816  162.7084 N.3     1  UNL1       -0.2703
      2 C         144.5196  140.3348  162.4928 C.3     1  UNL1        0.0727
      3 C         143.9947  139.8755  161.1649 C.3     1  UNL1        0.0260
      4 C         143.8015  140.8631  160.0525 C.3     1  UNL1        0.0737
      5 C         144.1333  142.3100  160.2681 C.3     1  UNL1        0.0260
      6 C         144.6581  142.7692  161.5961 C.3     1  UNL1        0.0727
      7 C         143.5577  141.7303  158.8531 C.3     1  UNL1        0.0306
      8 C         143.0338  140.8591  157.7500 C.3     1  UNL1        0.1001
      9 N         142.9538  139.4535  158.2678 N.am    1  UNL1       -0.2427
     10 C         143.4282  139.4560  159.6907 C.2     1  UNL1        0.2296
     11 O         143.5143  138.2612  160.5935 O.2     1  UNL1       -0.2745
     12 C         142.4821  138.2558  157.4978 C.ar    1  UNL1        0.1551
     13 C         141.0892  138.2223  156.9421 C.ar    1  UNL1        0.1134
     14 N         140.6176  137.0246  156.1721 N.ar    1  UNL1       -0.2885
     15 C         139.2247  136.9911  155.6164 C.3     1  UNL1        0.1337
     16 C         141.5387  135.8603  155.9577 C.ar    1  UNL1        0.2804
     17 O         141.0671  134.6626  155.1877 O.2     1  UNL1       -0.2653
     18 C         142.9317  135.8938  156.5134 C.ar    1  UNL1        0.1609
     19 N         143.4033  137.0916  157.2834 N.ar    1  UNL1       -0.2222
     20 C         145.3762  142.2410  164.0365 C.3     1  UNL1        0.1063
     21 C         144.5082  143.0630  164.9424 C.3     1  UNL1        0.1483
     22 O         145.1328  143.9415  165.9855 O.3     1  UNL1       -0.3786
     23 H         144.4365  144.4004  166.4809 H       1  UNL1        0.2108
     24 C         143.0370  145.3195  163.6218 C.3     1  UNL1        0.0306
     25 C         142.2799  144.1349  164.1449 C.ar    1  UNL1       -0.0238
     26 C         143.0155  143.0067  164.8051 C.ar    1  UNL1        0.0015
     27 C         142.2585  141.8221  165.3282 C.ar    1  UNL1       -0.0020
     28 C         140.7659  141.7657  165.1910 C.ar    1  UNL1        0.0060
     29 C         140.0303  142.8939  164.5307 C.ar    1  UNL1        0.0748
     30 C         140.7873  144.0785  164.0077 C.ar    1  UNL1        0.0233
     31 C         139.7977  145.0331  163.4082 C.3     1  UNL1        0.2352
     32 O         138.4291  144.4385  163.5607 O.3     1  UNL1       -0.4404
     33 C         138.5728  143.1164  164.2545 C.2     1  UNL1        0.3413
     34 O         137.4553  142.1810  164.6096 O.2     1  UNL1       -0.2449
@<TRIPOS>BOND
     1    24    25    1
     2    25    26   ar
     3    26    21    1
     4    21    22    1
     5    21    20    1
     6    20     1    1
     7     1     2    1
     8     2     3    1
     9     3     4    1
    10     4     5    1
    11     5     6    1
    12     4     7    1
    13     7     8    1
    14     8     9    1
    15     9    12    1
    16    12    13   ar
    17    13    14   ar
    18    14    15    1
    19    14    16   ar
    20    16    17    2
    21    16    18   ar
    22    18    19   ar
    23     9    10   am
    24    10    11    2
    25    26    27   ar
    26    27    28   ar
    27    28    29   ar
    28    29    30   ar
    29    30    31    1
    30    31    32    1
    31    32    33    1
    32    33    34    2
    33    30    25   ar
    34     6     1    1
    35    19    12   ar
    36    33    29    1
    37    10     4    1
    38    22    23    1
@<TRIPOS>MOLECULE
*****
 34 38 0 0 0
SMALL
GASTEIGER

@<TRIPOS>ATOM
      1 N         142.0784  139.3160  165.4075 N.3     1  UNL1       -0.2703
      2 C         141.2426  138.4775  164.4865 C.3     1  UNL1        0.0727
      3 C         141.6495  138.3049  163.0531 C.3     1  UNL1        0.0260
      4 C         142.8920  138.9709  162.5407 C.3     1  UNL1        0.0737
      5 C         143.7278  139.8094  163.4618 C.3     1  UNL1        0.0260
      6 C         143.3210  139.9819  164.8952 C.3     1  UNL1        0.0727
      7 C         144.1019  139.5722  161.8891 C.3     1  UNL1        0.0306
      8 C         144.1180  139.1397  160.4528 C.3     1  UNL1        0.1001
      9 N         142.9181  138.2710  160.2168 N.am    1  UNL1       -0.2427
     10 C         142.1604  138.1667  161.5072 C.2     1  UNL1        0.2296
     11 O         140.8935  137.3940  161.7258 O.2     1  UNL1       -0.2745
     12 C         142.5419  137.6209  158.9185 C.ar    1  UNL1        0.1551
     13 C         141.3982  138.1617  158.1126 C.ar    1  UNL1        0.1134
     14 N         141.0220  137.5116  156.8142 N.ar    1  UNL1       -0.2885
     15 C         139.8784  138.0524  156.0083 C.3     1  UNL1        0.1337
     16 C         141.7895  136.3206  156.3218 C.ar    1  UNL1        0.2804
     17 O         141.4133  135.6704  155.0234 O.2     1  UNL1       -0.2653
     18 C         142.9332  135.7797  157.1277 C.ar    1  UNL1        0.1609
     19 N         143.3093  136.4299  158.4261 N.ar    1  UNL1       -0.2222
     20 C         141.6716  139.4885  166.8410 C.3     1  UNL1        0.1063
     21 C         140.6149  140.4887  167.2056 C.3     1  UNL1        0.1483
     22 O         140.0663  140.5253  168.6012 O.3     1  UNL1       -0.3786
     23 H         139.3973  141.2245  168.6674 H       1  UNL1        0.2108
     24 C         138.2371  139.7701  165.5234 C.3     1  UNL1        0.0306
     25 C         138.9179  141.0931  165.3334 C.ar    1  UNL1       -0.0238
     26 C         140.1067  141.4525  166.1745 C.ar    1  UNL1        0.0015
     27 C         140.7875  142.7755  165.9845 C.ar    1  UNL1       -0.0020
     28 C         140.2794  143.7392  164.9535 C.ar    1  UNL1        0.0060
     29 C         139.0905  143.3799  164.1124 C.ar    1  UNL1        0.0748
     30 C         138.4098  142.0568  164.3024 C.ar    1  UNL1        0.0233
     31 C         137.2676  141.9798  163.3331 C.3     1  UNL1        0.2352
     32 O         137.2424  143.2553  162.5441 O.3     1  UNL1       -0.4404
     33 C         138.3691  144.1205  163.0257 C.2     1  UNL1        0.3413
     34 O         138.7138  145.4867  162.5111 O.2     1  UNL1       -0.2449
@<TRIPOS>BOND
     1    24    25    1
     2    25    26   ar
     3    26    21    1
     4    21    22    1
     5    21    20    1
     6    20     1    1
     7     1     2    1
     8     2     3    1
     9     3     4    1
    10     4     5    1
    11     5     6    1
    12     4     7    1
    13     7     8    1
    14     8     9    1
    15     9    12    1
    16    12    13   ar
    17    13    14   ar
    18    14    15    1
    19    14    16   ar
    20    16    17    2
    21    16    18   ar
    22    18    19   ar
    23     9    10   am
    24    10    11    2
    25    26    27   ar
    26    27    28   ar
    27    28    29   ar
    28    29    30   ar
    29    30    31    1
    30    31    32    1
    31    32    33    1
    32    33    34    2
    33    30    25   ar
    34     6     1    1
    35    19    12   ar
    36    33    29    1
    37    10     4    1
    38    22    23    1
@<TRIPOS>MOLECULE
*****
 34 38 0 0 0
SMALL
GASTEIGER

@<TRIPOS>ATOM
      1 N         139.8375  138.3097  161.9201 N.3     1  UNL1       -0.2703
      2 C         139.0897  139.0800  162.9677 C.3     1  UNL1        0.0727
      3 C         139.7202  139.3338  164.3049 C.3     1  UNL1        0.0260
      4 C         141.0984  138.8174  164.5944 C.3     1  UNL1        0.0737
      5 C         141.8462  138.0472  163.5468 C.3     1  UNL1        0.0260
      6 C         141.2157  137.7933  162.2097 C.3     1  UNL1        0.0727
      7 C         142.4620  138.3657  165.0263 C.3     1  UNL1        0.0306
      8 C         142.6824  138.8367  166.4334 C.3     1  UNL1        0.1001
      9 N         141.4549  139.5795  166.8711 N.am    1  UNL1       -0.2427
     10 C         140.4760  139.5676  165.7346 C.2     1  UNL1        0.2296
     11 O         139.1138  140.1956  165.7376 O.2     1  UNL1       -0.2745
     12 C         141.2434  140.2215  168.2101 C.ar    1  UNL1        0.1551
     13 C         142.1596  141.3166  168.6698 C.ar    1  UNL1        0.1134
     14 N         141.9481  141.9586  170.0089 N.ar    1  UNL1       -0.2885
     15 C         142.8643  143.0537  170.4687 C.3     1  UNL1        0.1337
     16 C         140.8205  141.5055  170.8883 C.ar    1  UNL1        0.2804
     17 O         140.6091  142.1475  172.2273 O.2     1  UNL1       -0.2653
     18 C         139.9043  140.4104  170.4285 C.ar    1  UNL1        0.1609
     19 N         140.1158  139.7684  169.0894 N.ar    1  UNL1       -0.2222
     20 C         139.2071  138.0558  160.5829 C.3     1  UNL1        0.1063
     21 C         139.3068  139.0876  159.4987 C.3     1  UNL1        0.1483
     22 O         138.0716  139.7850  159.0111 O.3     1  UNL1       -0.3786
     23 H         138.3104  140.4162  158.3143 H       1  UNL1        0.2108
     24 C         140.8274  141.4835  160.4720 C.3     1  UNL1        0.0306
     25 C         141.4021  140.6198  159.3886 C.ar    1  UNL1       -0.0238
     26 C         140.6419  139.4218  158.9020 C.ar    1  UNL1        0.0015
     27 C         141.2166  138.5581  157.8186 C.ar    1  UNL1       -0.0020
     28 C         142.5516  138.8923  157.2219 C.ar    1  UNL1        0.0060
     29 C         143.3118  140.0903  157.7086 C.ar    1  UNL1        0.0748
     30 C         142.7371  140.9540  158.7919 C.ar    1  UNL1        0.0233
     31 C         143.7100  142.0623  159.0663 C.3     1  UNL1        0.2352
     32 O         144.8860  141.8835  158.1525 O.3     1  UNL1       -0.4404
     33 C         144.6399  140.6648  157.3134 C.2     1  UNL1        0.3413
     34 O         145.5603  140.1166  156.2634 O.2     1  UNL1       -0.2449
@<TRIPOS>BOND
     1    24    25    1
     2    25    26   ar
     3    26    21    1
     4    21    22    1
     5    21    20    1
     6    20     1    1
     7     1     2    1
     8     2     3    1
     9     3     4    1
    10     4     5    1
    11     5     6    1
    12     4     7    1
    13     7     8    1
    14     8     9    1
    15     9    12    1
    16    12    13   ar
    17    13    14   ar
    18    14    15    1
    19    14    16   ar
    20    16    17    2
    21    16    18   ar
    22    18    19   ar
    23     9    10   am
    24    10    11    2
    25    26    27   ar
    26    27    28   ar
    27    28    29   ar
    28    29    30   ar
    29    30    31    1
    30    31    32    1
    31    32    33    1
    32    33    34    2
    33    30    25   ar
    34     6     1    1
    35    19    12   ar
    36    33    29    1
    37    10     4    1
    38    22    23    1
@<TRIPOS>MOLECULE
*****
 34 38 0 0 0
SMALL
GASTEIGER

@<TRIPOS>ATOM
      1 N         143.3623  138.7987  165.0056 N.3     1  UNL1       -0.2703
      2 C         142.3249  138.0155  164.2570 C.3     1  UNL1        0.0727
      3 C         142.2922  138.0553  162.7579 C.3     1  UNL1        0.0260
      4 C         143.2970  138.8782  162.0074 C.3     1  UNL1        0.0737
      5 C         144.3344  139.6613  162.7560 C.3     1  UNL1        0.0260
      6 C         144.3671  139.6216  164.2550 C.3     1  UNL1        0.0727
      7 C         144.2317  139.6517  161.1253 C.3     1  UNL1        0.0306
      8 C         143.8363  139.4030  159.6998 C.3     1  UNL1        0.1001
      9 N         142.6572  138.4757  159.7010 N.am    1  UNL1       -0.2427
     10 C         142.3239  138.1513  161.1270 C.2     1  UNL1        0.2296
     11 O         141.2127  137.2572  161.5914 O.2     1  UNL1       -0.2745
     12 C         141.9378  137.9628  158.4889 C.ar    1  UNL1        0.1551
     13 C         142.5982  136.9555  157.5950 C.ar    1  UNL1        0.1134
     14 N         141.8787  136.4426  156.3828 N.ar    1  UNL1       -0.2885
     15 C         142.5392  135.4353  155.4889 C.3     1  UNL1        0.1337
     16 C         140.4988  136.9370  156.0645 C.ar    1  UNL1        0.2804
     17 O         139.7793  136.4241  154.8524 O.2     1  UNL1       -0.2653
     18 C         139.8382  137.9444  156.9585 C.ar    1  UNL1        0.1609
     19 N         140.5578  138.4572  158.1706 N.ar    1  UNL1       -0.2222
     20 C         143.3950  138.7590  166.5047 C.3     1  UNL1        0.1063
     21 C         142.6642  139.8008  167.2987 C.3     1  UNL1        0.1483
     22 O         142.9547  139.9704  168.7605 O.3     1  UNL1       -0.3786
     23 H         142.4006  140.6808  169.1200 H       1  UNL1        0.2108
     24 C         143.4794  142.4416  166.1318 C.3     1  UNL1        0.0306
     25 C         142.0504  141.9935  166.0475 C.ar    1  UNL1       -0.0238
     26 C         141.6428  140.6731  166.6309 C.ar    1  UNL1        0.0015
     27 C         140.2138  140.2250  166.5466 C.ar    1  UNL1       -0.0020
     28 C         139.1924  141.0972  165.8788 C.ar    1  UNL1        0.0060
     29 C         139.6000  142.4176  165.2954 C.ar    1  UNL1        0.0748
     30 C         141.0290  142.8657  165.3797 C.ar    1  UNL1        0.0233
     31 C         141.1336  144.2082  164.7187 C.3     1  UNL1        0.2352
     32 O         139.7692  144.5897  164.2259 O.3     1  UNL1       -0.4404
     33 C         138.8214  143.4831  164.5823 C.2     1  UNL1        0.3413
     34 O         137.3529  143.4481  164.2789 O.2     1  UNL1       -0.2449
@<TRIPOS>BOND
     1    24    25    1
     2    25    26   ar
     3    26    21    1
     4    21    22    1
     5    21    20    1
     6    20     1    1
     7     1     2    1
     8     2     3    1
     9     3     4    1
    10     4     5    1
    11     5     6    1
    12     4     7    1
    13     7     8    1
    14     8     9    1
    15     9    12    1
    16    12    13   ar
    17    13    14   ar
    18    14    15    1
    19    14    16   ar
    20    16    17    2
    21    16    18   ar
    22    18    19   ar
    23     9    10   am
    24    10    11    2
    25    26    27   ar
    26    27    28   ar
    27    28    29   ar
    28    29    30   ar
    29    30    31    1
    30    31    32    1
    31    32    33    1
    32    33    34    2
    33    30    25   ar
    34     6     1    1
    35    19    12   ar
    36    33    29    1
    37    10     4    1
    38    22    23    1
@<TRIPOS>MOLECULE
*****
 34 38 0 0 0
SMALL
GASTEIGER

@<TRIPOS>ATOM
      1 N         140.0886  138.1866  164.1992 N.3     1  UNL1       -0.2703
      2 C         139.4702  138.2244  162.8332 C.3     1  UNL1        0.0727
      3 C         140.3427  138.1870  161.6136 C.3     1  UNL1        0.0260
      4 C         141.8336  138.1118  161.7601 C.3     1  UNL1        0.0737
      5 C         142.4520  138.0739  163.1261 C.3     1  UNL1        0.0260
      6 C         141.5795  138.1113  164.3457 C.3     1  UNL1        0.0727
      7 C         143.3317  138.0369  161.7498 C.3     1  UNL1        0.0306
      8 C         143.7852  138.0215  160.3199 C.3     1  UNL1        0.1001
      9 N         142.5673  138.0869  159.4467 N.am    1  UNL1       -0.2427
     10 C         141.3612  138.1426  160.3367 C.2     1  UNL1        0.2296
     11 O         139.9333  138.2163  159.8831 O.2     1  UNL1       -0.2745
     12 C         142.5573  138.0950  157.9468 C.ar    1  UNL1        0.1551
     13 C         142.8689  136.8393  157.1879 C.ar    1  UNL1        0.1134
     14 N         142.8589  136.8474  155.6879 N.ar    1  UNL1       -0.2885
     15 C         143.1704  135.5917  154.9290 C.3     1  UNL1        0.1337
     16 C         142.5373  138.1113  154.9469 C.ar    1  UNL1        0.2804
     17 O         142.5273  138.1195  153.4469 O.2     1  UNL1       -0.2653
     18 C         142.2257  139.3672  155.7058 C.ar    1  UNL1        0.1609
     19 N         142.2358  139.3589  157.2058 N.ar    1  UNL1       -0.2222
     20 C         139.2161  138.2240  165.4188 C.3     1  UNL1        0.1063
     21 C         138.6416  139.5268  165.8903 C.3     1  UNL1        0.1483
     22 O         137.5726  140.2089  165.0889 O.3     1  UNL1       -0.3786
     23 H         137.3140  141.0331  165.5302 H       1  UNL1        0.2108
     24 C         140.8184  141.5895  165.8064 C.3     1  UNL1        0.0306
     25 C         140.2244  141.1790  167.1212 C.ar    1  UNL1       -0.0238
     26 C         139.1360  140.1478  167.1631 C.ar    1  UNL1        0.0015
     27 C         138.5419  139.7373  168.4779 C.ar    1  UNL1       -0.0020
     28 C         139.0363  140.3582  169.7507 C.ar    1  UNL1        0.0060
     29 C         140.1247  141.3895  169.7088 C.ar    1  UNL1        0.0748
     30 C         140.7187  141.7999  168.3940 C.ar    1  UNL1        0.0233
     31 C         141.7714  142.8339  168.6636 C.3     1  UNL1        0.2352
     32 O         141.8279  143.0626  170.1450 O.3     1  UNL1       -0.4404
     33 C         140.8102  142.1699  170.7909 C.2     1  UNL1        0.3413
     34 O         140.5276  142.0743  172.2610 O.2     1  UNL1       -0.2449
@<TRIPOS>BOND
     1    24    25    1
     2    25    26   ar
     3    26    21    1
     4    21    22    1
     5    21    20    1
     6    20     1    1
     7     1     2    1
     8     2     3    1
     9     3     4    1
    10     4     5    1
    11     5     6    1
    12     4     7    1
    13     7     8    1
    14     8     9    1
    15     9    12    1
    16    12    13   ar
    17    13    14   ar
    18    14    15    1
    19    14    16   ar
    20    16    17    2
    21    16    18   ar
    22    18    19   ar
    23     9    10   am
    24    10    11    2
    25    26    27   ar
    26    27    28   ar
    27    28    29   ar
    28    29    30   ar
    29    30    31    1
    30    31    32    1
    31    32    33    1
    32    33    34    2
    33    30    25   ar
    34     6     1    1
    35    19    12   ar
    36    33    29    1
    37    10     4    1
    38    22    23    1
