@<TRIPOS>MOLECULE
*****
 29 33 0 0 0
SMALL
GASTEIGER

@<TRIPOS>ATOM
      1 N         139.6993  144.0792  157.6503 N.ar    1  UNL1       -0.2503
      2 N         138.5569  143.3227  157.0397 N.ar    1  UNL1       -0.1680
      3 C         138.0101  142.3902  158.0796 C.ar    1  UNL1        0.1174
      4 C         138.8145  142.5702  159.3328 C.ar    1  UNL1        0.0188
      5 C         139.8585  143.6141  159.0675 C.ar    1  UNL1        0.1099
      6 C         140.8192  144.0063  160.1506 C.2     1  UNL1        0.1899
      7 O         141.8632  145.0501  159.8853 O.2     1  UNL1       -0.2898
      8 C         140.7360  143.3545  161.4991 C.3     1  UNL1        0.0712
      9 C         139.6920  142.3107  161.7644 C.3     1  UNL1        0.0148
     10 C         140.6527  142.7028  162.8475 C.3     1  UNL1        0.0223
     11 C         140.5694  142.0511  164.1959 C.3     1  UNL1        0.0937
     12 N         139.5254  141.0073  164.4613 N.am    1  UNL1       -0.2763
     13 C         139.4421  140.3556  165.8098 C.2     1  UNL1        0.2453
     14 O         138.3981  139.3117  166.0751 O.2     1  UNL1       -0.2702
     15 C         138.5647  140.6151  163.3782 C.3     1  UNL1        0.0937
     16 C         138.6480  141.2668  162.0297 C.3     1  UNL1        0.0223
     17 C         138.7312  141.9185  160.6812 C.3     1  UNL1        0.0301
     18 C         140.4028  140.7477  166.8929 C.2     1  UNL1        0.0359
     19 C         141.6281  139.9199  167.1445 C.2     1  UNL1        0.0021
     20 C         142.5889  140.3121  168.2277 C.2     1  UNL1        0.0205
     21 C         142.3243  141.5321  169.0592 C.2     1  UNL1        0.1007
     22 N         143.0852  142.1616  170.1883 N.2     1  UNL1       -0.1482
     23 N         142.3302  143.3785  170.6345 N.2     1  UNL1       -0.1467
     24 C         141.1027  143.5011  169.7812 C.2     1  UNL1        0.1197
     25 C         141.0990  142.3600  168.8076 C.2     1  UNL1        0.0227
     26 C         140.1383  141.9678  167.7245 C.3     1  UNL1        0.0605
     27 C         140.0218  146.5202  156.8213 C.3     1  UNL1        0.0263
     28 C         140.5357  145.1182  156.9642 C.3     1  UNL1        0.1054
     29 C         141.8859  144.7554  156.4209 C.3     1  UNL1        0.0263
@<TRIPOS>BOND
     1    27    28    1
     2    28    29    1
     3    28     1    1
     4     1     2   ar
     5     2     3   ar
     6     3     4   ar
     7     4     5   ar
     8     5     6    1
     9     6     7    2
    10     6     8    1
    11     8     9    1
    12     9    10    1
    13    10    11    1
    14    11    12    1
    15    12    13   am
    16    13    14    2
    17    13    18    1
    18    18    19    2
    19    19    20    1
    20    20    21    2
    21    21    22    1
    22    22    23    2
    23    23    24    1
    24    24    25    2
    25    25    26    1
    26    12    15    1
    27    15    16    1
    28     9    17    1
    29     5     1   ar
    30    16     9    1
    31    17     4    1
    32    26    18    1
    33    25    21    1
@<TRIPOS>MOLECULE
*****
 29 33 0 0 0
SMALL
GASTEIGER

@<TRIPOS>ATOM
      1 N         142.4263  143.4090  158.1100 N.ar    1  UNL1       -0.2503
      2 N         143.4702  142.5699  157.4347 N.ar    1  UNL1       -0.1680
      3 C         143.9890  141.5809  158.4361 C.ar    1  UNL1        0.1174
      4 C         143.2657  141.8088  159.7303 C.ar    1  UNL1        0.0188
      5 C         142.2999  142.9387  159.5287 C.ar    1  UNL1        0.1099
      6 C         141.4301  143.3933  160.6631 C.2     1  UNL1        0.1899
      7 O         140.4643  144.5231  160.4615 O.2     1  UNL1       -0.2898
      8 C         141.5261  142.7180  161.9991 C.3     1  UNL1        0.0712
      9 C         142.4919  141.5881  162.2007 C.3     1  UNL1        0.0148
     10 C         141.6221  142.0427  163.3350 C.3     1  UNL1        0.0223
     11 C         141.7181  141.3674  164.6709 C.3     1  UNL1        0.0937
     12 N         142.6840  140.2376  164.8725 N.am    1  UNL1       -0.2763
     13 C         142.7800  139.5623  166.2085 C.2     1  UNL1        0.2453
     14 O         143.7458  138.4324  166.4101 O.2     1  UNL1       -0.2702
     15 C         143.5537  139.7830  163.7381 C.3     1  UNL1        0.0937
     16 C         143.4577  140.4583  162.4022 C.3     1  UNL1        0.0223
     17 C         143.3617  141.1336  161.0662 C.3     1  UNL1        0.0301
     18 C         141.9102  140.0168  167.3429 C.2     1  UNL1        0.0359
     19 C         140.4395  139.7225  167.3249 C.2     1  UNL1        0.0021
     20 C         139.5697  140.1771  168.4593 C.2     1  UNL1        0.0205
     21 C         140.1706  140.9260  169.6116 C.2     1  UNL1        0.1007
     22 N         139.5685  141.4960  170.8617 N.2     1  UNL1       -0.1482
     23 N         140.6671  142.1426  171.6523 N.2     1  UNL1       -0.1467
     24 C         141.9482  141.9723  170.8908 C.2     1  UNL1        0.1197
     25 C         141.6413  141.2204  169.6296 C.2     1  UNL1        0.0227
     26 C         142.5111  140.7659  168.4953 C.3     1  UNL1        0.0605
     27 C         142.1951  145.9188  157.4794 C.3     1  UNL1        0.0263
     28 C         141.6458  144.5230  157.4776 C.3     1  UNL1        0.1054
     29 C         140.3160  144.2411  156.8434 C.3     1  UNL1        0.0263
@<TRIPOS>BOND
     1    27    28    1
     2    28    29    1
     3    28     1    1
     4     1     2   ar
     5     2     3   ar
     6     3     4   ar
     7     4     5   ar
     8     5     6    1
     9     6     7    2
    10     6     8    1
    11     8     9    1
    12     9    10    1
    13    10    11    1
    14    11    12    1
    15    12    13   am
    16    13    14    2
    17    13    18    1
    18    18    19    2
    19    19    20    1
    20    20    21    2
    21    21    22    1
    22    22    23    2
    23    23    24    1
    24    24    25    2
    25    25    26    1
    26    12    15    1
    27    15    16    1
    28     9    17    1
    29     5     1   ar
    30    16     9    1
    31    17     4    1
    32    26    18    1
    33    25    21    1
@<TRIPOS>MOLECULE
*****
 29 33 0 0 0
SMALL
GASTEIGER

@<TRIPOS>ATOM
      1 N         139.3833  140.0699  168.0411 N.ar    1  UNL1       -0.2503
      2 N         138.2736  139.0788  168.2317 N.ar    1  UNL1       -0.1680
      3 C         137.6724  138.7922  166.8877 C.ar    1  UNL1        0.1174
      4 C         138.4104  139.6062  165.8665 C.ar    1  UNL1        0.0188
      5 C         139.4678  140.3959  166.5794 C.ar    1  UNL1        0.1099
      6 C         140.3710  141.3097  165.8055 C.2     1  UNL1        0.1899
      7 O         141.4284  142.0995  166.5184 O.2     1  UNL1       -0.2898
      8 C         140.2168  141.4339  164.3185 C.3     1  UNL1        0.0712
      9 C         139.1594  140.6442  163.6056 C.3     1  UNL1        0.0148
     10 C         140.0626  141.5581  162.8317 C.3     1  UNL1        0.0223
     11 C         139.9084  141.6822  161.3449 C.3     1  UNL1        0.0937
     12 N         138.8510  140.8925  160.6320 N.am    1  UNL1       -0.2763
     13 C         138.6968  141.0167  159.1450 C.2     1  UNL1        0.2453
     14 O         137.6394  140.2270  158.4321 O.2     1  UNL1       -0.2702
     15 C         137.9478  139.9786  161.4059 C.3     1  UNL1        0.0937
     16 C         138.1020  139.8545  162.8927 C.3     1  UNL1        0.0223
     17 C         138.2562  139.7303  164.3797 C.3     1  UNL1        0.0301
     18 C         139.6000  141.9305  158.3711 C.2     1  UNL1        0.0359
     19 C         140.8347  141.3864  157.7159 C.2     1  UNL1        0.0021
     20 C         141.7379  142.3003  156.9419 C.2     1  UNL1        0.0205
     21 C         141.4064  143.7584  156.8232 C.2     1  UNL1        0.1007
     22 N         142.1018  144.8927  156.1305 N.2     1  UNL1       -0.1482
     23 N         141.2970  146.1379  156.3576 N.2     1  UNL1       -0.1467
     24 C         140.1040  145.7731  157.1906 C.2     1  UNL1        0.1197
     25 C         140.1717  144.3025  157.4784 C.2     1  UNL1        0.0227
     26 C         139.2685  143.3887  158.2523 C.3     1  UNL1        0.0605
     27 C         141.4847  139.8954  169.5589 C.3     1  UNL1        0.0263
     28 C         140.2553  140.6358  169.1225 C.3     1  UNL1        0.1054
     29 C         139.8980  141.9421  169.7674 C.3     1  UNL1        0.0263
@<TRIPOS>BOND
     1    27    28    1
     2    28    29    1
     3    28     1    1
     4     1     2   ar
     5     2     3   ar
     6     3     4   ar
     7     4     5   ar
     8     5     6    1
     9     6     7    2
    10     6     8    1
    11     8     9    1
    12     9    10    1
    13    10    11    1
    14    11    12    1
    15    12    13   am
    16    13    14    2
    17    13    18    1
    18    18    19    2
    19    19    20    1
    20    20    21    2
    21    21    22    1
    22    22    23    2
    23    23    24    1
    24    24    25    2
    25    25    26    1
    26    12    15    1
    27    15    16    1
    28     9    17    1
    29     5     1   ar
    30    16     9    1
    31    17     4    1
    32    26    18    1
    33    25    21    1
@<TRIPOS>MOLECULE
*****
 29 33 0 0 0
SMALL
GASTEIGER

@<TRIPOS>ATOM
      1 N         138.6386  140.3106  157.7866 N.ar    1  UNL1       -0.2503
      2 N         139.1270  139.0208  157.1967 N.ar    1  UNL1       -0.1680
      3 C         139.9063  138.2941  158.2524 C.ar    1  UNL1        0.1174
      4 C         139.8996  139.1347  159.4948 C.ar    1  UNL1        0.0188
      5 C         139.1161  140.3810  159.2069 C.ar    1  UNL1        0.1099
      6 C         138.9387  141.4189  160.2752 C.2     1  UNL1        0.1899
      7 O         138.1552  142.6652  159.9873 O.2     1  UNL1       -0.2898
      8 C         139.5448  141.2105  161.6314 C.3     1  UNL1        0.0712
      9 C         140.3283  139.9642  161.9193 C.3     1  UNL1        0.0148
     10 C         140.1509  141.0021  162.9875 C.3     1  UNL1        0.0223
     11 C         140.7569  140.7937  164.3437 C.3     1  UNL1        0.0937
     12 N         141.5404  139.5473  164.6316 N.am    1  UNL1       -0.2763
     13 C         142.1465  139.3390  165.9878 C.2     1  UNL1        0.2453
     14 O         142.9300  138.0926  166.2757 O.2     1  UNL1       -0.2702
     15 C         141.7178  138.5094  163.5633 C.3     1  UNL1        0.0937
     16 C         141.1117  138.7179  162.2072 C.3     1  UNL1        0.0223
     17 C         140.5056  138.9262  160.8509 C.3     1  UNL1        0.0301
     18 C         141.9691  140.3768  167.0561 C.2     1  UNL1        0.0359
     19 C         142.9705  141.4843  167.1995 C.2     1  UNL1        0.0021
     20 C         142.7931  142.5223  168.2678 C.2     1  UNL1        0.0205
     21 C         141.6142  142.4527  169.1927 C.2     1  UNL1        0.1007
     22 N         141.1790  143.3266  170.3315 N.2     1  UNL1       -0.1482
     23 N         139.9085  142.7592  170.8919 N.2     1  UNL1       -0.1467
     24 C         139.5586  141.5347  170.0995 C.2     1  UNL1        0.1197
     25 C         140.6128  141.3452  169.0493 C.2     1  UNL1        0.0227
     26 C         140.7902  140.3073  167.9810 C.3     1  UNL1        0.0605
     27 C         136.3651  141.0933  156.8025 C.3     1  UNL1        0.0263
     28 C         137.8170  141.3480  157.0803 C.3     1  UNL1        0.1054
     29 C         138.4473  142.6399  156.6519 C.3     1  UNL1        0.0263
@<TRIPOS>BOND
     1    27    28    1
     2    28    29    1
     3    28     1    1
     4     1     2   ar
     5     2     3   ar
     6     3     4   ar
     7     4     5   ar
     8     5     6    1
     9     6     7    2
    10     6     8    1
    11     8     9    1
    12     9    10    1
    13    10    11    1
    14    11    12    1
    15    12    13   am
    16    13    14    2
    17    13    18    1
    18    18    19    2
    19    19    20    1
    20    20    21    2
    21    21    22    1
    22    22    23    2
    23    23    24    1
    24    24    25    2
    25    25    26    1
    26    12    15    1
    27    15    16    1
    28     9    17    1
    29     5     1   ar
    30    16     9    1
    31    17     4    1
    32    26    18    1
    33    25    21    1
@<TRIPOS>MOLECULE
*****
 29 33 0 0 0
SMALL
GASTEIGER

@<TRIPOS>ATOM
      1 N         140.6170  139.8765  168.2165 N.ar    1  UNL1       -0.2503
      2 N         139.1597  139.7110  168.5311 N.ar    1  UNL1       -0.1680
      3 C         138.4263  139.5112  167.2380 C.ar    1  UNL1        0.1174
      4 C         139.4302  139.5531  166.1243 C.ar    1  UNL1        0.0188
      5 C         140.7842  139.7790  166.7290 C.ar    1  UNL1        0.1099
      6 C         141.9944  139.8666  165.8472 C.2     1  UNL1        0.1899
      7 O         143.3483  140.0924  166.4519 O.2     1  UNL1       -0.2898
      8 C         141.8506  139.7283  164.3604 C.3     1  UNL1        0.0712
      9 C         140.4966  139.5025  163.7556 C.3     1  UNL1        0.0148
     10 C         141.7068  139.5901  162.8738 C.3     1  UNL1        0.0223
     11 C         141.5630  139.4519  161.3871 C.3     1  UNL1        0.0937
     12 N         140.2090  139.2261  160.7824 N.am    1  UNL1       -0.2763
     13 C         140.0653  139.0879  159.2956 C.2     1  UNL1        0.2453
     14 O         138.7113  138.8621  158.6908 O.2     1  UNL1       -0.2702
     15 C         138.9988  139.1385  161.6642 C.3     1  UNL1        0.0937
     16 C         139.1426  139.2767  163.1509 C.3     1  UNL1        0.0223
     17 C         139.2864  139.4149  164.6376 C.3     1  UNL1        0.0301
     18 C         141.2754  139.1755  158.4137 C.2     1  UNL1        0.0359
     19 C         141.9564  140.4954  158.2036 C.2     1  UNL1        0.0021
     20 C         143.1666  140.5830  157.3217 C.2     1  UNL1        0.0205
     21 C         143.6958  139.3507  156.6499 C.2     1  UNL1        0.1007
     22 N         144.8614  139.1300  155.7319 N.2     1  UNL1       -0.1482
     23 N         144.9008  137.6737  155.3746 N.2     1  UNL1       -0.1467
     24 C         143.7596  136.9944  156.0718 C.2     1  UNL1        0.1197
     25 C         143.0149  138.0308  156.8600 C.2     1  UNL1        0.0227
     26 C         141.8047  137.9432  157.7419 C.3     1  UNL1        0.0605
     27 C         142.1894  141.4927  169.5072 C.3     1  UNL1        0.0263
     28 C         141.7145  140.1003  169.2142 C.3     1  UNL1        0.1054
     29 C         142.3371  138.9317  169.9191 C.3     1  UNL1        0.0263
@<TRIPOS>BOND
     1    27    28    1
     2    28    29    1
     3    28     1    1
     4     1     2   ar
     5     2     3   ar
     6     3     4   ar
     7     4     5   ar
     8     5     6    1
     9     6     7    2
    10     6     8    1
    11     8     9    1
    12     9    10    1
    13    10    11    1
    14    11    12    1
    15    12    13   am
    16    13    14    2
    17    13    18    1
    18    18    19    2
    19    19    20    1
    20    20    21    2
    21    21    22    1
    22    22    23    2
    23    23    24    1
    24    24    25    2
    25    25    26    1
    26    12    15    1
    27    15    16    1
    28     9    17    1
    29     5     1   ar
    30    16     9    1
    31    17     4    1
    32    26    18    1
    33    25    21    1
@<TRIPOS>MOLECULE
*****
 29 33 0 0 0
SMALL
GASTEIGER

@<TRIPOS>ATOM
      1 N         139.3377  139.8968  168.1411 N.ar    1  UNL1       -0.2503
      2 N         138.1024  139.0572  168.2782 N.ar    1  UNL1       -0.1680
      3 C         137.6203  138.7133  166.9001 C.ar    1  UNL1        0.1174
      4 C         138.5577  139.3404  165.9111 C.ar    1  UNL1        0.0188
      5 C         139.6192  140.0719  166.6781 C.ar    1  UNL1        0.1099
      6 C         140.7048  140.8028  165.9454 C.2     1  UNL1        0.1899
      7 O         141.7663  141.5343  166.7123 O.2     1  UNL1       -0.2898
      8 C         140.7291  140.8023  164.4455 C.3     1  UNL1        0.0712
      9 C         139.6676  140.0709  163.6785 C.3     1  UNL1        0.0148
     10 C         140.7533  140.8018  162.9457 C.3     1  UNL1        0.0223
     11 C         140.7775  140.8013  161.4460 C.3     1  UNL1        0.0937
     12 N         139.7160  140.0699  160.6790 N.am    1  UNL1       -0.2763
     13 C         139.7403  140.0694  159.1791 C.2     1  UNL1        0.2453
     14 O         138.6788  139.3379  158.4121 O.2     1  UNL1       -0.2702
     15 C         138.6304  139.3389  161.4117 C.3     1  UNL1        0.0937
     16 C         138.6062  139.3394  162.9115 C.3     1  UNL1        0.0223
     17 C         138.5819  139.3399  164.4114 C.3     1  UNL1        0.0301
     18 C         140.8259  140.8003  158.4463 C.2     1  UNL1        0.0359
     19 C         140.6327  142.2359  158.0567 C.2     1  UNL1        0.0021
     20 C         141.7184  142.9668  157.3238 C.2     1  UNL1        0.0205
     21 C         142.9973  142.2622  156.9807 C.2     1  UNL1        0.1007
     22 N         144.2361  142.7203  156.2695 N.2     1  UNL1       -0.1482
     23 N         145.1949  141.5678  156.2196 N.2     1  UNL1       -0.1467
     24 C         144.5488  140.3975  156.9000 C.2     1  UNL1        0.1197
     25 C         143.1906  140.8267  157.3704 C.2     1  UNL1        0.0227
     26 C         142.1050  140.0957  158.1032 C.3     1  UNL1        0.0605
     27 C         141.2766  139.6649  169.8548 C.3     1  UNL1        0.0263
     28 C         140.1492  140.4622  169.2688 C.3     1  UNL1        0.1054
     29 C         139.8334  141.8248  169.8106 C.3     1  UNL1        0.0263
@<TRIPOS>BOND
     1    27    28    1
     2    28    29    1
     3    28     1    1
     4     1     2   ar
     5     2     3   ar
     6     3     4   ar
     7     4     5   ar
     8     5     6    1
     9     6     7    2
    10     6     8    1
    11     8     9    1
    12     9    10    1
    13    10    11    1
    14    11    12    1
    15    12    13   am
    16    13    14    2
    17    13    18    1
    18    18    19    2
    19    19    20    1
    20    20    21    2
    21    21    22    1
    22    22    23    2
    23    23    24    1
    24    24    25    2
    25    25    26    1
    26    12    15    1
    27    15    16    1
    28     9    17    1
    29     5     1   ar
    30    16     9    1
    31    17     4    1
    32    26    18    1
    33    25    21    1
@<TRIPOS>MOLECULE
*****
 29 33 0 0 0
SMALL
GASTEIGER

@<TRIPOS>ATOM
      1 N         141.8903  137.8895  155.8604 N.ar    1  UNL1       -0.2503
      2 N         140.9304  138.4672  154.8631 N.ar    1  UNL1       -0.1680
      3 C         139.8696  139.2118  155.6183 C.ar    1  UNL1        0.1174
      4 C         140.1740  139.0941  157.0824 C.ar    1  UNL1        0.0188
      5 C         141.4229  138.2769  157.2320 C.ar    1  UNL1        0.1099
      6 C         141.9730  137.9911  158.5979 C.2     1  UNL1        0.1899
      7 O         143.2219  137.1739  158.7475 O.2     1  UNL1       -0.2898
      8 C         141.2743  138.5226  159.8142 C.3     1  UNL1        0.0712
      9 C         140.0254  139.3399  159.6646 C.3     1  UNL1        0.0148
     10 C         140.5756  139.0541  161.0305 C.3     1  UNL1        0.0223
     11 C         139.8769  139.5856  162.2467 C.3     1  UNL1        0.0937
     12 N         138.6280  140.4028  162.0971 N.am    1  UNL1       -0.2763
     13 C         137.9293  140.9343  163.3134 C.2     1  UNL1        0.2453
     14 O         136.6804  141.7515  163.1638 O.2     1  UNL1       -0.2702
     15 C         138.0778  140.6886  160.7312 C.3     1  UNL1        0.0937
     16 C         138.7765  140.1571  159.5150 C.3     1  UNL1        0.0223
     17 C         139.4752  139.6256  158.2987 C.3     1  UNL1        0.0301
     18 C         138.4794  140.6485  164.6793 C.2     1  UNL1        0.0359
     19 C         138.0988  139.3846  165.3918 C.2     1  UNL1        0.0021
     20 C         138.6490  139.0989  166.7578 C.2     1  UNL1        0.0205
     21 C         139.5799  140.0770  167.4110 C.2     1  UNL1        0.1007
     22 N         140.2755  140.0666  168.7400 N.2     1  UNL1       -0.1482
     23 N         141.0861  141.3240  168.8487 N.2     1  UNL1       -0.1467
     24 C         140.8914  142.1116  167.5870 C.2     1  UNL1        0.1197
     25 C         139.9605  141.3409  166.6985 C.2     1  UNL1        0.0227
     26 C         139.4103  141.6266  165.3326 C.3     1  UNL1        0.0605
     27 C         142.9893  135.5786  155.4108 C.3     1  UNL1        0.0263
     28 C         143.1046  137.0684  155.5420 C.3     1  UNL1        0.1054
     29 C         144.4342  137.7371  155.3549 C.3     1  UNL1        0.0263
@<TRIPOS>BOND
     1    27    28    1
     2    28    29    1
     3    28     1    1
     4     1     2   ar
     5     2     3   ar
     6     3     4   ar
     7     4     5   ar
     8     5     6    1
     9     6     7    2
    10     6     8    1
    11     8     9    1
    12     9    10    1
    13    10    11    1
    14    11    12    1
    15    12    13   am
    16    13    14    2
    17    13    18    1
    18    18    19    2
    19    19    20    1
    20    20    21    2
    21    21    22    1
    22    22    23    2
    23    23    24    1
    24    24    25    2
    25    25    26    1
    26    12    15    1
    27    15    16    1
    28     9    17    1
    29     5     1   ar
    30    16     9    1
    31    17     4    1
    32    26    18    1
    33    25    21    1
@<TRIPOS>MOLECULE
*****
 29 33 0 0 0
SMALL
GASTEIGER

@<TRIPOS>ATOM
      1 N         142.4601  140.5656  165.9828 N.ar    1  UNL1       -0.2503
      2 N         143.2132  141.8620  165.9386 N.ar    1  UNL1       -0.1680
      3 C         143.6795  142.0794  164.5296 C.ar    1  UNL1        0.1174
      4 C         143.2146  140.9173  163.7030 C.ar    1  UNL1        0.0188
      5 C         142.4610  139.9817  164.6011 C.ar    1  UNL1        0.1099
      6 C         141.8729  138.7189  164.0447 C.2     1  UNL1        0.1899
      7 O         141.1192  137.7833  164.9428 O.2     1  UNL1       -0.2898
      8 C         142.0384  138.3917  162.5902 C.3     1  UNL1        0.0712
      9 C         142.7921  139.3274  161.6921 C.3     1  UNL1        0.0148
     10 C         142.2040  138.0646  161.1357 C.3     1  UNL1        0.0223
     11 C         142.3696  137.7375  159.6812 C.3     1  UNL1        0.0937
     12 N         143.1232  138.6732  158.7831 N.am    1  UNL1       -0.2763
     13 C         143.2888  138.3460  157.3286 C.2     1  UNL1        0.2453
     14 O         144.0424  139.2816  156.4305 O.2     1  UNL1       -0.2702
     15 C         143.7113  139.9359  159.3395 C.3     1  UNL1        0.0937
     16 C         143.5457  140.2630  160.7940 C.3     1  UNL1        0.0223
     17 C         143.3802  140.5902  162.2485 C.3     1  UNL1        0.0301
     18 C         142.7007  137.0832  156.7722 C.2     1  UNL1        0.0359
     19 C         141.4811  137.1441  155.9011 C.2     1  UNL1        0.0021
     20 C         140.8930  135.8813  155.3448 C.2     1  UNL1        0.0205
     21 C         141.5245  134.5577  155.6595 C.2     1  UNL1        0.1007
     22 N         141.1715  133.1563  155.2576 N.2     1  UNL1       -0.1482
     23 N         142.1730  132.2293  155.8803 N.2     1  UNL1       -0.1467
     24 C         143.1449  133.0577  156.6670 C.2     1  UNL1        0.1197
     25 C         142.7442  134.4968  156.5305 C.2     1  UNL1        0.0227
     26 C         143.3323  135.7595  157.0869 C.3     1  UNL1        0.0605
     27 C         142.6604  139.2456  168.2116 C.3     1  UNL1        0.0263
     28 C         141.8187  139.9594  167.1957 C.3     1  UNL1        0.1054
     29 C         140.3356  140.0669  167.3927 C.3     1  UNL1        0.0263
@<TRIPOS>BOND
     1    27    28    1
     2    28    29    1
     3    28     1    1
     4     1     2   ar
     5     2     3   ar
     6     3     4   ar
     7     4     5   ar
     8     5     6    1
     9     6     7    2
    10     6     8    1
    11     8     9    1
    12     9    10    1
    13    10    11    1
    14    11    12    1
    15    12    13   am
    16    13    14    2
    17    13    18    1
    18    18    19    2
    19    19    20    1
    20    20    21    2
    21    21    22    1
    22    22    23    2
    23    23    24    1
    24    24    25    2
    25    25    26    1
    26    12    15    1
    27    15    16    1
    28     9    17    1
    29     5     1   ar
    30    16     9    1
    31    17     4    1
    32    26    18    1
    33    25    21    1
@<TRIPOS>MOLECULE
*****
 29 33 0 0 0
SMALL
GASTEIGER

@<TRIPOS>ATOM
      1 N         142.2880  141.7040  162.8346 N.ar    1  UNL1       -0.2503
      2 N         141.5698  140.3930  162.7103 N.ar    1  UNL1       -0.1680
      3 C         140.7021  140.4539  161.4883 C.ar    1  UNL1        0.1174
      4 C         140.8841  141.8025  160.8572 C.ar    1  UNL1        0.0188
      5 C         141.8642  142.5751  161.6893 C.ar    1  UNL1        0.1099
      6 C         142.2442  143.9720  161.2967 C.2     1  UNL1        0.1899
      7 O         143.2243  144.7447  162.1288 O.2     1  UNL1       -0.2898
      8 C         141.6440  144.5964  160.0719 C.3     1  UNL1        0.0712
      9 C         140.6639  143.8237  159.2398 C.3     1  UNL1        0.0148
     10 C         141.0438  145.2206  158.8471 C.3     1  UNL1        0.0223
     11 C         140.4437  145.8449  157.6224 C.3     1  UNL1        0.0937
     12 N         139.4635  145.0723  156.7903 N.am    1  UNL1       -0.2763
     13 C         138.8634  145.6966  155.5655 C.2     1  UNL1        0.2453
     14 O         137.8832  144.9240  154.7334 O.2     1  UNL1       -0.2702
     15 C         139.0836  143.6754  157.1830 C.3     1  UNL1        0.0937
     16 C         139.6837  143.0511  158.4077 C.3     1  UNL1        0.0223
     17 C         140.2839  142.4268  159.6325 C.3     1  UNL1        0.0301
     18 C         139.2433  147.0935  155.1729 C.2     1  UNL1        0.0359
     19 C         140.2106  147.3199  154.0490 C.2     1  UNL1        0.0021
     20 C         140.5906  148.7169  153.6563 C.2     1  UNL1        0.0205
     21 C         140.0033  149.8874  154.3876 C.2     1  UNL1        0.1007
     22 N         140.1883  151.3672  154.2262 N.2     1  UNL1       -0.1482
     23 N         139.3353  152.0555  155.2503 N.2     1  UNL1       -0.1467
     24 C         138.6232  151.0010  156.0446 C.2     1  UNL1        0.1197
     25 C         139.0359  149.6611  155.5114 C.2     1  UNL1        0.0227
     26 C         138.6560  148.2642  155.9041 C.3     1  UNL1        0.0605
     27 C         144.7308  141.8782  163.7020 C.3     1  UNL1        0.0263
     28 C         143.2595  142.0783  163.9145 C.3     1  UNL1        0.1054
     29 C         142.7596  142.6526  165.2069 C.3     1  UNL1        0.0263
@<TRIPOS>BOND
     1    27    28    1
     2    28    29    1
     3    28     1    1
     4     1     2   ar
     5     2     3   ar
     6     3     4   ar
     7     4     5   ar
     8     5     6    1
     9     6     7    2
    10     6     8    1
    11     8     9    1
    12     9    10    1
    13    10    11    1
    14    11    12    1
    15    12    13   am
    16    13    14    2
    17    13    18    1
    18    18    19    2
    19    19    20    1
    20    20    21    2
    21    21    22    1
    22    22    23    2
    23    23    24    1
    24    24    25    2
    25    25    26    1
    26    12    15    1
    27    15    16    1
    28     9    17    1
    29     5     1   ar
    30    16     9    1
    31    17     4    1
    32    26    18    1
    33    25    21    1
