@<TRIPOS>MOLECULE
*****
 35 38 0 0 0
SMALL
GASTEIGER

@<TRIPOS>ATOM
      1 C         139.9807  140.8714  166.8395 C.ar    1  UNL1        0.1377
      2 C         138.8463  140.3407  166.0140 C.ar    1  UNL1        0.1397
      3 N         138.3660  141.1079  164.8179 N.ar    1  UNL1       -0.2027
      4 C         139.0202  142.4059  164.4473 C.ar    1  UNL1        0.2367
      5 N         140.1546  142.9366  165.2727 N.ar    1  UNL1       -0.1828
      6 C         140.6349  142.1694  166.4688 C.ar    1  UNL1        0.2339
      7 C         142.3992  139.0177  169.3821 C.3     1  UNL1        0.1109
      8 N         141.9189  139.7849  168.1860 N.am    1  UNL1       -0.2990
      9 C         140.4610  140.1042  168.0356 C.2     1  UNL1        0.2532
     10 O         139.4834  139.6562  169.0813 O.2     1  UNL1       -0.2699
     11 H         142.5606  140.0789  167.4997 H       1  UNL1        0.1498
     12 N         138.1921  139.0427  166.3847 N.pl3   1  UNL1       -0.3178
     13 H         137.5269  139.0162  167.1100 H       1  UNL1        0.1482
     14 C         138.5517  137.7851  165.6504 C.3     1  UNL1        0.0881
     15 C         139.5787  137.8222  164.5577 C.3     1  UNL1        0.0199
     16 C         139.1455  137.8505  163.1219 C.3     1  UNL1        0.0067
     17 C         140.1726  137.8876  162.0293 C.3     1  UNL1        0.0563
     18 C         141.6327  137.8964  162.3725 C.3     1  UNL1        0.1872
     19 C         142.0659  137.8681  163.8083 C.3     1  UNL1        0.0563
     20 C         141.0388  137.8310  164.9009 C.3     1  UNL1        0.0067
     21 O         143.1208  137.9091  162.5612 O.3     1  UNL1       -0.3316
     22 C         143.7597  137.9478  161.2046 C.3     1  UNL1        0.1767
     23 C         142.6666  137.9591  160.1775 C.3     1  UNL1        0.1767
     24 O         141.3520  137.9273  160.8993 O.3     1  UNL1       -0.3316
     25 C         138.5399  143.1731  163.2512 C.1     1  UNL1        0.1401
     26 N         138.0596  143.9404  162.0551 N.1     1  UNL1       -0.1876
     27 O         141.7693  142.7002  167.2943 O.3     1  UNL1       -0.4600
     28 C         143.1860  142.4017  166.9021 C.3     1  UNL1        0.2071
     29 C         143.5820  142.4128  165.4554 C.3     1  UNL1        0.0466
     30 C         143.7530  143.7172  164.7347 C.3     1  UNL1        0.0211
     31 C         144.1490  143.7283  163.2878 C.3     1  UNL1        0.0723
     32 N         144.3740  142.4353  162.5619 N.3     1  UNL1       -0.2715
     33 C         144.7699  142.4464  161.1151 C.3     1  UNL1        0.0896
     34 C         144.2030  141.1308  163.2826 C.3     1  UNL1        0.0723
     35 C         143.8070  141.1197  164.7293 C.3     1  UNL1        0.0211
@<TRIPOS>BOND
     1     7     8    1
     2     8     9   am
     3     9    10    2
     4     9     1    1
     5     1     2   ar
     6     2    12    1
     7    12    14    1
     8    14    15    1
     9    15    16    1
    10    16    17    1
    11    17    18    1
    12    18    19    1
    13    19    20    1
    14    18    21    1
    15    21    22    1
    16    22    23    1
    17    23    24    1
    18     2     3   ar
    19     3     4   ar
    20     4    25    1
    21    25    26    3
    22     4     5   ar
    23     5     6   ar
    24     6    27    1
    25    27    28    1
    26    28    29    1
    27    29    30    1
    28    30    31    1
    29    31    32    1
    30    32    33    1
    31    32    34    1
    32    34    35    1
    33     6     1   ar
    34    35    29    1
    35    20    15    1
    36    24    18    1
    37     8    11    1
    38    12    13    1
@<TRIPOS>MOLECULE
*****
 35 38 0 0 0
SMALL
GASTEIGER

@<TRIPOS>ATOM
      1 C         138.4242  139.7235  164.4349 C.ar    1  UNL1        0.1377
      2 C         138.7474  138.5645  163.5392 C.ar    1  UNL1        0.1397
      3 N         138.5736  138.6925  162.0548 N.ar    1  UNL1       -0.2027
      4 C         138.0767  139.9796  161.4662 C.ar    1  UNL1        0.2367
      5 N         137.7535  141.1386  162.3618 N.ar    1  UNL1       -0.1828
      6 C         137.9272  141.0106  163.8462 C.ar    1  UNL1        0.2339
      7 C         139.6645  140.4222  168.1395 C.3     1  UNL1        0.1109
      8 N         139.4907  140.5503  166.6551 N.am    1  UNL1       -0.2990
      9 C         138.5980  139.5954  165.9192 C.2     1  UNL1        0.2532
     10 O         137.8790  138.5126  166.6679 O.2     1  UNL1       -0.2699
     11 H         139.9626  141.2610  166.1638 H       1  UNL1        0.1498
     12 N         139.2444  137.2775  164.1279 N.pl3   1  UNL1       -0.3178
     13 H         138.6154  136.6642  164.5723 H       1  UNL1        0.1482
     14 C         140.6996  136.9249  164.0394 C.3     1  UNL1        0.0881
     15 C         141.7269  138.0091  163.9000 C.3     1  UNL1        0.0199
     16 C         142.2903  138.3395  162.5497 C.3     1  UNL1        0.0067
     17 C         143.3176  139.4236  162.4105 C.3     1  UNL1        0.0563
     18 C         143.7813  140.1774  163.6216 C.3     1  UNL1        0.1872
     19 C         143.2179  139.8470  164.9719 C.3     1  UNL1        0.0563
     20 C         142.1907  138.7629  165.1111 C.3     1  UNL1        0.0067
     21 O         144.3386  141.0124  164.7361 O.3     1  UNL1       -0.3316
     22 C         145.3333  141.9680  164.1467 C.3     1  UNL1        0.1767
     23 C         145.3908  141.7235  162.6679 C.3     1  UNL1        0.1767
     24 O         144.4317  140.6169  162.3433 O.3     1  UNL1       -0.3316
     25 C         137.9028  140.1078  159.9817 C.1     1  UNL1        0.1401
     26 N         137.7290  140.2358  158.4974 N.1     1  UNL1       -0.1876
     27 O         137.6040  142.1696  164.7419 O.3     1  UNL1       -0.4600
     28 C         137.9371  143.5668  164.3101 C.3     1  UNL1        0.2071
     29 C         139.3644  143.9544  164.0598 C.3     1  UNL1        0.0466
     30 C         140.4691  143.2763  164.8147 C.3     1  UNL1        0.0211
     31 C         141.8964  143.6639  164.5645 C.3     1  UNL1        0.0723
     32 N         142.2190  144.7295  163.5594 N.3     1  UNL1       -0.2715
     33 C         143.6463  145.1171  163.3091 C.3     1  UNL1        0.0896
     34 C         141.1144  145.4077  162.8044 C.3     1  UNL1        0.0723
     35 C         139.6871  145.0201  163.0547 C.3     1  UNL1        0.0211
@<TRIPOS>BOND
     1     7     8    1
     2     8     9   am
     3     9    10    2
     4     9     1    1
     5     1     2   ar
     6     2    12    1
     7    12    14    1
     8    14    15    1
     9    15    16    1
    10    16    17    1
    11    17    18    1
    12    18    19    1
    13    19    20    1
    14    18    21    1
    15    21    22    1
    16    22    23    1
    17    23    24    1
    18     2     3   ar
    19     3     4   ar
    20     4    25    1
    21    25    26    3
    22     4     5   ar
    23     5     6   ar
    24     6    27    1
    25    27    28    1
    26    28    29    1
    27    29    30    1
    28    30    31    1
    29    31    32    1
    30    32    33    1
    31    32    34    1
    32    34    35    1
    33     6     1   ar
    34    35    29    1
    35    20    15    1
    36    24    18    1
    37     8    11    1
    38    12    13    1
@<TRIPOS>MOLECULE
*****
 35 38 0 0 0
SMALL
GASTEIGER

@<TRIPOS>ATOM
      1 C         142.6758  138.4467  163.8549 C.ar    1  UNL1        0.1377
      2 C         143.9083  138.8047  163.0785 C.ar    1  UNL1        0.1397
      3 N         143.9636  138.5524  161.6010 N.ar    1  UNL1       -0.2027
      4 C         142.7863  137.9420  160.8998 C.ar    1  UNL1        0.2367
      5 N         141.5539  137.5839  161.6762 N.ar    1  UNL1       -0.1828
      6 C         141.4986  137.8363  163.1538 C.ar    1  UNL1        0.2339
      7 C         141.4685  139.7973  167.3861 C.3     1  UNL1        0.1109
      8 N         141.5238  139.5450  165.9085 N.am    1  UNL1       -0.2990
      9 C         142.6205  138.6990  165.3325 C.2     1  UNL1        0.2532
     10 O         143.6620  138.1054  166.2342 O.2     1  UNL1       -0.2699
     11 H         140.8403  139.9346  165.3167 H       1  UNL1        0.1498
     12 N         145.0855  139.4151  163.7797 N.pl3   1  UNL1       -0.3178
     13 H         145.7978  138.8383  164.1391 H       1  UNL1        0.1482
     14 C         145.1773  140.9044  163.9334 C.3     1  UNL1        0.0881
     15 C         144.2464  141.7963  163.1667 C.3     1  UNL1        0.0199
     16 C         142.9417  142.2186  163.7745 C.3     1  UNL1        0.0067
     17 C         142.0109  143.1105  163.0077 C.3     1  UNL1        0.0563
     18 C         142.3846  143.5801  161.6331 C.3     1  UNL1        0.1872
     19 C         143.6893  143.1578  161.0252 C.3     1  UNL1        0.0563
     20 C         144.6202  142.2659  161.7920 C.3     1  UNL1        0.0067
     21 O         142.6215  144.1265  160.2564 O.3     1  UNL1       -0.3316
     22 C         141.4367  144.9663  159.8809 C.3     1  UNL1        0.1767
     23 C         140.4676  144.9390  161.0255 C.3     1  UNL1        0.1767
     24 O         141.0535  144.0823  162.1084 O.3     1  UNL1       -0.3316
     25 C         142.8416  137.6896  159.4222 C.1     1  UNL1        0.1401
     26 N         142.8967  137.4372  157.9446 N.1     1  UNL1       -0.1876
     27 O         140.2661  137.4782  163.9302 O.3     1  UNL1       -0.4600
     28 C         138.9208  137.9449  163.4588 C.3     1  UNL1        0.2071
     29 C         138.6187  139.4124  163.3871 C.3     1  UNL1        0.0466
     30 C         138.6361  140.1179  162.0635 C.3     1  UNL1        0.0211
     31 C         138.3340  141.5855  161.9918 C.3     1  UNL1        0.0723
     32 N         138.0146  142.3475  163.2436 N.3     1  UNL1       -0.2715
     33 C         137.7125  143.8150  163.1719 C.3     1  UNL1        0.0896
     34 C         137.9972  141.6420  164.5673 C.3     1  UNL1        0.0723
     35 C         138.2993  140.1745  164.6390 C.3     1  UNL1        0.0211
@<TRIPOS>BOND
     1     7     8    1
     2     8     9   am
     3     9    10    2
     4     9     1    1
     5     1     2   ar
     6     2    12    1
     7    12    14    1
     8    14    15    1
     9    15    16    1
    10    16    17    1
    11    17    18    1
    12    18    19    1
    13    19    20    1
    14    18    21    1
    15    21    22    1
    16    22    23    1
    17    23    24    1
    18     2     3   ar
    19     3     4   ar
    20     4    25    1
    21    25    26    3
    22     4     5   ar
    23     5     6   ar
    24     6    27    1
    25    27    28    1
    26    28    29    1
    27    29    30    1
    28    30    31    1
    29    31    32    1
    30    32    33    1
    31    32    34    1
    32    34    35    1
    33     6     1   ar
    34    35    29    1
    35    20    15    1
    36    24    18    1
    37     8    11    1
    38    12    13    1
@<TRIPOS>MOLECULE
*****
 35 38 0 0 0
SMALL
GASTEIGER

@<TRIPOS>ATOM
      1 C         142.0493  144.4366  162.6945 C.ar    1  UNL1        0.1377
      2 C         140.6953  145.0770  162.6130 C.ar    1  UNL1        0.1397
      3 N         140.1362  145.4822  161.2814 N.ar    1  UNL1       -0.2027
      4 C         140.9312  145.2469  160.0313 C.ar    1  UNL1        0.2367
      5 N         142.2852  144.6065  160.1128 N.ar    1  UNL1       -0.1828
      6 C         142.8443  144.2014  161.4444 C.ar    1  UNL1        0.2339
      7 C         144.6315  143.7928  165.6387 C.3     1  UNL1        0.1109
      8 N         144.0724  144.1979  164.3071 N.am    1  UNL1       -0.2990
      9 C         142.6084  144.0315  164.0262 C.2     1  UNL1        0.2532
     10 O         141.7034  143.4598  165.0770 O.2     1  UNL1       -0.2699
     11 H         144.6664  144.5731  163.6174 H       1  UNL1        0.1498
     12 N         139.9004  145.3122  163.8632 N.pl3   1  UNL1       -0.3178
     13 H         140.2215  145.9539  164.5372 H       1  UNL1        0.1482
     14 C         138.6164  144.5697  164.0862 C.3     1  UNL1        0.0881
     15 C         138.5072  143.1258  163.6946 C.3     1  UNL1        0.0199
     16 C         137.9079  142.7507  162.3716 C.3     1  UNL1        0.0067
     17 C         137.7987  141.3068  161.9801 C.3     1  UNL1        0.0563
     18 C         138.2888  140.2380  162.9115 C.3     1  UNL1        0.1872
     19 C         138.8881  140.6131  164.2344 C.3     1  UNL1        0.0563
     20 C         138.9973  142.0570  164.6260 C.3     1  UNL1        0.0067
     21 O         138.7335  139.0654  163.7343 O.3     1  UNL1       -0.3316
     22 C         138.4353  137.8159  162.9597 C.3     1  UNL1        0.1767
     23 C         137.8063  138.2165  161.6581 C.3     1  UNL1        0.1767
     24 O         137.7158  139.7134  161.6283 O.3     1  UNL1       -0.3316
     25 C         140.3722  145.6521  158.6996 C.1     1  UNL1        0.1401
     26 N         139.8132  146.0573  157.3679 N.1     1  UNL1       -0.1876
     27 O         144.1982  143.5610  161.5259 O.3     1  UNL1       -0.4600
     28 C         144.3434  142.0837  161.3107 C.3     1  UNL1        0.2071
     29 C         144.0633  141.1309  162.4348 C.3     1  UNL1        0.0466
     30 C         142.6792  140.5866  162.6294 C.3     1  UNL1        0.0211
     31 C         142.3991  139.6337  163.7536 C.3     1  UNL1        0.0723
     32 N         143.5031  139.2252  164.6831 N.3     1  UNL1       -0.2715
     33 C         143.2231  138.2724  165.8073 C.3     1  UNL1        0.0896
     34 C         144.8873  139.7695  164.4886 C.3     1  UNL1        0.0723
     35 C         145.1674  140.7223  163.3645 C.3     1  UNL1        0.0211
@<TRIPOS>BOND
     1     7     8    1
     2     8     9   am
     3     9    10    2
     4     9     1    1
     5     1     2   ar
     6     2    12    1
     7    12    14    1
     8    14    15    1
     9    15    16    1
    10    16    17    1
    11    17    18    1
    12    18    19    1
    13    19    20    1
    14    18    21    1
    15    21    22    1
    16    22    23    1
    17    23    24    1
    18     2     3   ar
    19     3     4   ar
    20     4    25    1
    21    25    26    3
    22     4     5   ar
    23     5     6   ar
    24     6    27    1
    25    27    28    1
    26    28    29    1
    27    29    30    1
    28    30    31    1
    29    31    32    1
    30    32    33    1
    31    32    34    1
    32    34    35    1
    33     6     1   ar
    34    35    29    1
    35    20    15    1
    36    24    18    1
    37     8    11    1
    38    12    13    1
@<TRIPOS>MOLECULE
*****
 35 38 0 0 0
SMALL
GASTEIGER

@<TRIPOS>ATOM
      1 C         143.0025  138.6951  162.7493 C.ar    1  UNL1        0.1377
      2 C         144.0494  139.4942  163.4673 C.ar    1  UNL1        0.1397
      3 N         144.0356  139.5743  164.9650 N.ar    1  UNL1       -0.2027
      4 C         142.9749  138.8553  165.7448 C.ar    1  UNL1        0.2367
      5 N         141.9280  138.0562  165.0268 N.ar    1  UNL1       -0.1828
      6 C         141.9418  137.9761  163.5290 C.ar    1  UNL1        0.2339
      7 C         141.7390  138.4424  158.9956 C.3     1  UNL1        0.1109
      8 N         141.7252  138.5225  160.4933 N.am    1  UNL1       -0.2990
      9 C         143.0163  138.6151  161.2515 C.2     1  UNL1        0.2532
     10 O         144.3211  138.6275  160.5117 O.2     1  UNL1       -0.2699
     11 H         140.8688  138.5144  160.9789 H       1  UNL1        0.1498
     12 N         145.1100  140.2133  162.6875 N.pl3   1  UNL1       -0.3178
     13 H         145.6990  139.7113  162.0789 H       1  UNL1        0.1482
     14 C         145.2731  141.6970  162.8349 C.3     1  UNL1        0.0881
     15 C         144.1341  142.6138  162.4998 C.3     1  UNL1        0.0199
     16 C         143.5005  143.4468  163.5743 C.3     1  UNL1        0.0067
     17 C         142.3615  144.3635  163.2391 C.3     1  UNL1        0.0563
     18 C         141.8561  144.4472  161.8293 C.3     1  UNL1        0.1872
     19 C         142.4897  143.6142  160.7547 C.3     1  UNL1        0.0563
     20 C         143.6287  142.6975  161.0900 C.3     1  UNL1        0.0067
     21 O         141.2465  144.6360  160.4718 O.3     1  UNL1       -0.3316
     22 C         140.1404  145.6415  160.5963 C.3     1  UNL1        0.1767
     23 C         140.0664  146.0741  162.0307 C.3     1  UNL1        0.1767
     24 O         141.1268  145.3360  162.7927 O.3     1  UNL1       -0.3316
     25 C         142.9611  138.9353  167.2427 C.1     1  UNL1        0.1401
     26 N         142.9472  139.0153  168.7404 N.1     1  UNL1       -0.1876
     27 O         140.8949  137.1770  162.8110 O.3     1  UNL1       -0.4600
     28 C         139.4454  137.5309  162.9638 C.3     1  UNL1        0.2071
     29 C         139.0481  138.9381  163.2984 C.3     1  UNL1        0.0466
     30 C         139.0591  139.9939  162.2329 C.3     1  UNL1        0.0211
     31 C         138.6618  141.4012  162.5675 C.3     1  UNL1        0.0723
     32 N         138.2536  141.7526  163.9674 N.3     1  UNL1       -0.2715
     33 C         137.8563  143.1598  164.3019 C.3     1  UNL1        0.0896
     34 C         138.2427  140.6968  165.0329 C.3     1  UNL1        0.0723
     35 C         138.6399  139.2896  164.6983 C.3     1  UNL1        0.0211
@<TRIPOS>BOND
     1     7     8    1
     2     8     9   am
     3     9    10    2
     4     9     1    1
     5     1     2   ar
     6     2    12    1
     7    12    14    1
     8    14    15    1
     9    15    16    1
    10    16    17    1
    11    17    18    1
    12    18    19    1
    13    19    20    1
    14    18    21    1
    15    21    22    1
    16    22    23    1
    17    23    24    1
    18     2     3   ar
    19     3     4   ar
    20     4    25    1
    21    25    26    3
    22     4     5   ar
    23     5     6   ar
    24     6    27    1
    25    27    28    1
    26    28    29    1
    27    29    30    1
    28    30    31    1
    29    31    32    1
    30    32    33    1
    31    32    34    1
    32    34    35    1
    33     6     1   ar
    34    35    29    1
    35    20    15    1
    36    24    18    1
    37     8    11    1
    38    12    13    1
@<TRIPOS>MOLECULE
*****
 35 38 0 0 0
SMALL
GASTEIGER

@<TRIPOS>ATOM
      1 C         139.3127  141.0088  165.9934 C.ar    1  UNL1        0.1377
      2 C         140.1223  142.1048  166.6204 C.ar    1  UNL1        0.1397
      3 N         140.4752  142.0374  168.0767 N.ar    1  UNL1       -0.2027
      4 C         140.0184  140.8739  168.9060 C.ar    1  UNL1        0.2367
      5 N         139.2088  139.7778  168.2789 N.ar    1  UNL1       -0.1828
      6 C         138.8560  139.8452  166.8226 C.ar    1  UNL1        0.2339
      7 C         137.1783  141.3291  162.6628 C.3     1  UNL1        0.1109
      8 N         137.5312  141.2617  164.1192 N.am    1  UNL1       -0.2990
      9 C         138.9599  141.0762  164.5370 C.2     1  UNL1        0.2532
     10 O         140.0356  140.9581  163.4984 O.2     1  UNL1       -0.2699
     11 H         136.8251  141.3392  164.8008 H       1  UNL1        0.1498
     12 N         140.5790  143.2683  165.7911 N.pl3   1  UNL1       -0.3178
     13 H         140.0391  144.0909  165.7574 H       1  UNL1        0.1482
     14 C         141.8583  143.1785  165.0132 C.3     1  UNL1        0.0881
     15 C         141.8840  143.5666  163.5644 C.3     1  UNL1        0.0199
     16 C         140.9326  144.6055  163.0492 C.3     1  UNL1        0.0067
     17 C         140.9584  144.9935  161.6005 C.3     1  UNL1        0.0563
     18 C         141.9356  144.3427  160.6670 C.3     1  UNL1        0.1872
     19 C         142.8870  143.3038  161.1822 C.3     1  UNL1        0.0563
     20 C         142.8613  142.9157  162.6309 C.3     1  UNL1        0.0067
     21 O         142.8516  143.7815  159.6201 O.3     1  UNL1       -0.3316
     22 C         142.5320  144.4520  158.3170 C.3     1  UNL1        0.1767
     23 C         141.4185  145.4276  158.5585 C.3     1  UNL1        0.1767
     24 O         141.0499  145.3600  160.0109 O.3     1  UNL1       -0.3316
     25 C         140.3713  140.8064  170.3624 C.1     1  UNL1        0.1401
     26 N         140.7241  140.7390  171.8187 N.1     1  UNL1       -0.1876
     27 O         138.0464  138.7492  166.1956 O.3     1  UNL1       -0.4600
     28 C         138.7293  137.5295  165.6516 C.3     1  UNL1        0.2071
     29 C         139.5420  137.6229  164.3944 C.3     1  UNL1        0.0466
     30 C         138.8569  137.7524  163.0663 C.3     1  UNL1        0.0211
     31 C         139.6696  137.8458  161.8090 C.3     1  UNL1        0.0723
     32 N         141.1674  137.8097  161.8797 N.3     1  UNL1       -0.2715
     33 C         141.9802  137.9031  160.6225 C.3     1  UNL1        0.0896
     34 C         141.8527  137.6802  163.2078 C.3     1  UNL1        0.0723
     35 C         141.0400  137.5868  164.4651 C.3     1  UNL1        0.0211
@<TRIPOS>BOND
     1     7     8    1
     2     8     9   am
     3     9    10    2
     4     9     1    1
     5     1     2   ar
     6     2    12    1
     7    12    14    1
     8    14    15    1
     9    15    16    1
    10    16    17    1
    11    17    18    1
    12    18    19    1
    13    19    20    1
    14    18    21    1
    15    21    22    1
    16    22    23    1
    17    23    24    1
    18     2     3   ar
    19     3     4   ar
    20     4    25    1
    21    25    26    3
    22     4     5   ar
    23     5     6   ar
    24     6    27    1
    25    27    28    1
    26    28    29    1
    27    29    30    1
    28    30    31    1
    29    31    32    1
    30    32    33    1
    31    32    34    1
    32    34    35    1
    33     6     1   ar
    34    35    29    1
    35    20    15    1
    36    24    18    1
    37     8    11    1
    38    12    13    1
@<TRIPOS>MOLECULE
*****
 35 38 0 0 0
SMALL
GASTEIGER

@<TRIPOS>ATOM
      1 C         139.3963  141.0022  166.0375 C.ar    1  UNL1        0.1377
      2 C         138.8474  139.8843  166.8735 C.ar    1  UNL1        0.1397
      3 N         139.1690  139.8145  168.3370 N.ar    1  UNL1       -0.2027
      4 C         140.0395  140.8627  168.9643 C.ar    1  UNL1        0.2367
      5 N         140.5884  141.9806  168.1283 N.ar    1  UNL1       -0.1828
      6 C         140.2668  142.0504  166.6648 C.ar    1  UNL1        0.2339
      7 C         137.3392  141.3672  162.6632 C.3     1  UNL1        0.1109
      8 N         137.6608  141.2975  164.1267 N.am    1  UNL1       -0.2990
      9 C         139.0747  141.0719  164.5740 C.2     1  UNL1        0.2532
     10 O         140.1670  140.9161  163.5579 O.2     1  UNL1       -0.2699
     11 H         136.9439  141.3998  164.7936 H       1  UNL1        0.1498
     12 N         137.9769  138.8361  166.2461 N.pl3   1  UNL1       -0.3178
     13 H         137.0031  138.9714  166.1942 H       1  UNL1        0.1482
     14 C         138.5901  137.5818  165.6979 C.3     1  UNL1        0.0881
     15 C         139.6010  137.6623  164.5926 C.3     1  UNL1        0.0199
     16 C         141.0612  137.7709  164.9181 C.3     1  UNL1        0.0067
     17 C         142.0720  137.8513  163.8127 C.3     1  UNL1        0.0563
     18 C         141.6227  137.8231  162.3819 C.3     1  UNL1        0.1872
     19 C         140.1624  137.7145  162.0564 C.3     1  UNL1        0.0563
     20 C         139.1516  137.6341  163.1618 C.3     1  UNL1        0.0067
     21 O         141.3248  137.8065  160.9119 O.3     1  UNL1       -0.3316
     22 C         142.6269  137.9074  160.1740 C.3     1  UNL1        0.1767
     23 C         143.7294  137.9864  161.1880 C.3     1  UNL1        0.1767
     24 O         143.1088  137.9343  162.5526 O.3     1  UNL1       -0.3316
     25 C         140.3611  140.7930  170.4278 C.1     1  UNL1        0.1401
     26 N         140.6828  140.7233  171.8913 N.1     1  UNL1       -0.1876
     27 O         140.8157  143.1682  165.8288 O.3     1  UNL1       -0.4600
     28 C         142.2816  143.2203  165.5152 C.3     1  UNL1        0.2071
     29 C         142.7554  143.0104  164.1076 C.3     1  UNL1        0.0466
     30 C         143.5556  141.7903  163.7598 C.3     1  UNL1        0.0211
     31 C         144.0295  141.5803  162.3521 C.3     1  UNL1        0.0723
     32 N         143.7031  142.5904  161.2923 N.3     1  UNL1       -0.2715
     33 C         144.1769  142.3804  159.8847 C.3     1  UNL1        0.0896
     34 C         142.9028  143.8105  161.6402 C.3     1  UNL1        0.0723
     35 C         142.4290  144.0205  163.0478 C.3     1  UNL1        0.0211
@<TRIPOS>BOND
     1     7     8    1
     2     8     9   am
     3     9    10    2
     4     9     1    1
     5     1     2   ar
     6     2    12    1
     7    12    14    1
     8    14    15    1
     9    15    16    1
    10    16    17    1
    11    17    18    1
    12    18    19    1
    13    19    20    1
    14    18    21    1
    15    21    22    1
    16    22    23    1
    17    23    24    1
    18     2     3   ar
    19     3     4   ar
    20     4    25    1
    21    25    26    3
    22     4     5   ar
    23     5     6   ar
    24     6    27    1
    25    27    28    1
    26    28    29    1
    27    29    30    1
    28    30    31    1
    29    31    32    1
    30    32    33    1
    31    32    34    1
    32    34    35    1
    33     6     1   ar
    34    35    29    1
    35    20    15    1
    36    24    18    1
    37     8    11    1
    38    12    13    1
@<TRIPOS>MOLECULE
*****
 35 38 0 0 0
SMALL
GASTEIGER

@<TRIPOS>ATOM
      1 C         138.6299  142.4759  162.3317 C.ar    1  UNL1        0.1377
      2 C         138.0474  141.2028  161.7934 C.ar    1  UNL1        0.1397
      3 N         137.9768  140.9778  160.3121 N.ar    1  UNL1       -0.2027
      4 C         138.4886  142.0261  159.3691 C.ar    1  UNL1        0.2367
      5 N         139.0711  143.2992  159.9074 N.ar    1  UNL1       -0.1828
      6 C         139.1418  143.5242  161.3887 C.ar    1  UNL1        0.2339
      7 C         140.0989  143.1451  165.9573 C.3     1  UNL1        0.1109
      8 N         140.0282  142.9201  164.4760 N.am    1  UNL1       -0.2990
      9 C         138.7006  142.7009  163.8130 C.2     1  UNL1        0.2532
     10 O         137.4436  142.7066  164.6316 O.2     1  UNL1       -0.2699
     11 H         140.8532  142.9163  163.9388 H       1  UNL1        0.1498
     12 N         137.5356  140.1546  162.7365 N.pl3   1  UNL1       -0.3178
     13 H         136.5879  140.1528  163.0032 H       1  UNL1        0.1482
     14 C         138.4677  139.1091  163.2731 C.3     1  UNL1        0.0881
     15 C         139.0935  139.2848  164.6250 C.3     1  UNL1        0.0199
     16 C         138.2266  139.3978  165.8439 C.3     1  UNL1        0.0067
     17 C         138.8524  139.5735  167.1957 C.3     1  UNL1        0.0563
     18 C         140.3452  139.6363  167.3286 C.3     1  UNL1        0.1872
     19 C         141.2121  139.5233  166.1098 C.3     1  UNL1        0.0563
     20 C         140.5862  139.3476  164.7579 C.3     1  UNL1        0.0067
     21 O         141.8152  139.7161  167.6160 O.3     1  UNL1       -0.3316
     22 C         141.9894  139.8922  169.0954 C.3     1  UNL1        0.1767
     23 C         140.6270  139.9212  169.7224 C.3     1  UNL1        0.1767
     24 O         139.6108  139.7630  168.6304 O.3     1  UNL1       -0.3316
     25 C         138.4180  141.8011  157.8876 C.1     1  UNL1        0.1401
     26 N         138.3474  141.5763  156.4063 N.1     1  UNL1       -0.1876
     27 O         139.7243  144.7973  161.9270 O.3     1  UNL1       -0.4600
     28 C         141.1301  145.1857  161.5770 C.3     1  UNL1        0.2071
     29 C         142.2789  144.3369  162.0353 C.3     1  UNL1        0.0466
     30 C         142.7248  143.1682  161.2076 C.3     1  UNL1        0.0211
     31 C         143.8737  142.3194  161.6658 C.3     1  UNL1        0.0723
     32 N         144.5764  142.6393  162.9517 N.3     1  UNL1       -0.2715
     33 C         145.7251  141.7906  163.4100 C.3     1  UNL1        0.0896
     34 C         144.1304  143.8081  163.7795 C.3     1  UNL1        0.0723
     35 C         142.9817  144.6569  163.3213 C.3     1  UNL1        0.0211
@<TRIPOS>BOND
     1     7     8    1
     2     8     9   am
     3     9    10    2
     4     9     1    1
     5     1     2   ar
     6     2    12    1
     7    12    14    1
     8    14    15    1
     9    15    16    1
    10    16    17    1
    11    17    18    1
    12    18    19    1
    13    19    20    1
    14    18    21    1
    15    21    22    1
    16    22    23    1
    17    23    24    1
    18     2     3   ar
    19     3     4   ar
    20     4    25    1
    21    25    26    3
    22     4     5   ar
    23     5     6   ar
    24     6    27    1
    25    27    28    1
    26    28    29    1
    27    29    30    1
    28    30    31    1
    29    31    32    1
    30    32    33    1
    31    32    34    1
    32    34    35    1
    33     6     1   ar
    34    35    29    1
    35    20    15    1
    36    24    18    1
    37     8    11    1
    38    12    13    1
@<TRIPOS>MOLECULE
*****
 35 38 0 0 0
SMALL
GASTEIGER

@<TRIPOS>ATOM
      1 C         140.4748  138.2511  163.6181 C.ar    1  UNL1        0.1377
      2 C         139.6781  138.1844  162.3490 C.ar    1  UNL1        0.1397
      3 N         140.3790  138.0492  161.0297 N.ar    1  UNL1       -0.2027
      4 C         141.8766  137.9807  160.9797 C.ar    1  UNL1        0.2367
      5 N         142.6733  138.0473  162.2488 N.ar    1  UNL1       -0.1828
      6 C         141.9725  138.1825  163.5681 C.ar    1  UNL1        0.2339
      7 C         139.4088  139.6624  167.1709 C.3     1  UNL1        0.1109
      8 N         140.1097  139.5272  165.8517 N.am    1  UNL1       -0.2990
      9 C         139.7740  138.3863  164.9374 C.2     1  UNL1        0.2532
     10 O         138.7374  137.3806  165.3425 O.2     1  UNL1       -0.2699
     11 H         140.7900  140.1872  165.5858 H       1  UNL1        0.1498
     12 N         138.1805  138.2530  162.3991 N.pl3   1  UNL1       -0.3178
     13 H         137.6763  137.6091  162.9472 H       1  UNL1        0.1482
     14 C         137.4511  139.3026  161.6141 C.3     1  UNL1        0.0881
     15 C         137.9658  140.7113  161.5864 C.3     1  UNL1        0.0199
     16 C         137.8292  141.5838  162.7988 C.3     1  UNL1        0.0067
     17 C         138.3439  142.9925  162.7710 C.3     1  UNL1        0.0563
     18 C         138.9952  143.5286  161.5307 C.3     1  UNL1        0.1872
     19 C         139.1318  142.6561  160.3183 C.3     1  UNL1        0.0563
     20 C         138.6171  141.2475  160.3461 C.3     1  UNL1        0.0067
     21 O         139.6657  144.1995  160.3687 O.3     1  UNL1       -0.3316
     22 C         140.0146  145.5992  160.7799 C.3     1  UNL1        0.1767
     23 C         139.5597  145.7934  162.1960 C.3     1  UNL1        0.1767
     24 O         138.9296  144.5137  162.6600 O.3     1  UNL1       -0.3316
     25 C         142.5775  137.8455  159.6603 C.1     1  UNL1        0.1401
     26 N         143.2784  137.7103  158.3411 N.1     1  UNL1       -0.1876
     27 O         142.7692  138.2492  164.8372 O.3     1  UNL1       -0.4600
     28 C         144.0259  139.0661  164.8918 C.3     1  UNL1        0.2071
     29 C         144.0115  140.4957  164.4378 C.3     1  UNL1        0.0466
     30 C         143.0493  141.4682  165.0528 C.3     1  UNL1        0.0211
     31 C         143.0349  142.8979  164.5988 C.3     1  UNL1        0.0723
     32 N         143.9826  143.3549  163.5299 N.3     1  UNL1       -0.2715
     33 C         143.9682  144.7845  163.0759 C.3     1  UNL1        0.0896
     34 C         144.9449  142.3824  162.9147 C.3     1  UNL1        0.0723
     35 C         144.9593  140.9528  163.3687 C.3     1  UNL1        0.0211
@<TRIPOS>BOND
     1     7     8    1
     2     8     9   am
     3     9    10    2
     4     9     1    1
     5     1     2   ar
     6     2    12    1
     7    12    14    1
     8    14    15    1
     9    15    16    1
    10    16    17    1
    11    17    18    1
    12    18    19    1
    13    19    20    1
    14    18    21    1
    15    21    22    1
    16    22    23    1
    17    23    24    1
    18     2     3   ar
    19     3     4   ar
    20     4    25    1
    21    25    26    3
    22     4     5   ar
    23     5     6   ar
    24     6    27    1
    25    27    28    1
    26    28    29    1
    27    29    30    1
    28    30    31    1
    29    31    32    1
    30    32    33    1
    31    32    34    1
    32    34    35    1
    33     6     1   ar
    34    35    29    1
    35    20    15    1
    36    24    18    1
    37     8    11    1
    38    12    13    1
