@<TRIPOS>MOLECULE
*****
 34 36 0 0 0
SMALL
GASTEIGER

@<TRIPOS>ATOM
      1 C         138.1833  140.4136  156.7746 C.ar    1  UNL1       -0.0024
      2 C         138.9783  139.3947  156.0132 C.ar    1  UNL1       -0.0026
      3 C         139.8748  138.4417  156.7468 C.ar    1  UNL1       -0.0001
      4 C         139.9763  138.5077  158.2419 C.ar    1  UNL1        0.0045
      5 C         139.1813  139.5267  159.0034 C.ar    1  UNL1        0.0534
      6 C         138.2849  140.4796  158.2697 C.ar    1  UNL1        0.0019
      7 C         139.2828  139.5927  160.4985 C.2     1  UNL1        0.2495
      8 O         140.4356  140.3054  161.1412 O.2     1  UNL1       -0.2698
      9 N         138.2315  138.9460  161.3509 N.am    1  UNL1       -0.2804
     10 H         137.4749  138.4782  160.9290 H       1  UNL1        0.1552
     11 C         138.3330  139.0120  162.8460 C.ar    1  UNL1        0.0505
     12 C         138.7909  137.8117  163.6203 C.ar    1  UNL1        0.0144
     13 C         138.8925  137.8777  165.1154 C.ar    1  UNL1       -0.0016
     14 C         138.5360  139.1440  165.8362 C.ar    1  UNL1       -0.0061
     15 C         138.0781  140.3443  165.0618 C.ar    1  UNL1       -0.0016
     16 C         137.9766  140.2783  163.5667 C.ar    1  UNL1        0.0144
     17 C         138.6376  139.2100  167.3313 C.3     1  UNL1        0.0992
     18 N         139.7703  139.9542  167.9740 N.3     1  UNL1       -0.2665
     19 C         139.5611  140.6517  169.2854 C.3     1  UNL1        0.0899
     20 C         141.1121  140.0009  167.3053 C.3     1  UNL1        0.0899
     21 C         137.2868  141.3666  156.0409 C.3     1  UNL1        0.1166
     22 C         134.9646  140.2272  155.7984 C.2     1  UNL1        0.2461
     23 O         135.5963  139.1027  155.0326 O.2     1  UNL1       -0.2701
     24 N         135.8098  141.3591  156.3026 N.am    1  UNL1       -0.2969
     25 H         135.3952  142.0971  156.8053 H       1  UNL1        0.1501
     26 C         130.5336  140.2046  156.5835 C.ar    1  UNL1        0.1347
     27 C         131.4118  139.1630  157.2110 C.ar    1  UNL1        0.0367
     28 C         132.8888  139.1705  156.9493 C.ar    1  UNL1        0.0076
     29 C         133.4876  140.2196  156.0601 C.ar    1  UNL1        0.0532
     30 C         132.6094  141.2613  155.4326 C.ar    1  UNL1        0.0032
     31 C         131.1325  141.2538  155.6943 C.ar    1  UNL1        0.0123
     32 C         130.2543  142.2954  155.0667 C.3     1  UNL1        0.0342
     33 C         128.1780  139.1954  156.1564 C.3     1  UNL1        0.2525
     34 O         129.0567  140.1971  156.8451 O.3     1  UNL1       -0.4717
@<TRIPOS>BOND
     1    33    34    1
     2    34    26    1
     3    26    27   ar
     4    27    28   ar
     5    28    29   ar
     6    29    22    1
     7    22    23    2
     8    22    24   am
     9    24    21    1
    10    21     1    1
    11     1     2   ar
    12     2     3   ar
    13     3     4   ar
    14     4     5   ar
    15     5     7    1
    16     7     8    2
    17     7     9   am
    18     9    11    1
    19    11    12   ar
    20    12    13   ar
    21    13    14   ar
    22    14    17    1
    23    17    18    1
    24    18    19    1
    25    18    20    1
    26    14    15   ar
    27    15    16   ar
    28     5     6   ar
    29    29    30   ar
    30    30    31   ar
    31    31    32    1
    32    31    26   ar
    33     6     1   ar
    34    16    11   ar
    35    24    25    1
    36     9    10    1
@<TRIPOS>MOLECULE
*****
 34 36 0 0 0
SMALL
GASTEIGER

@<TRIPOS>ATOM
      1 C         141.7112  138.3402  157.3309 C.ar    1  UNL1       -0.0024
      2 C         140.6027  138.8009  156.4315 C.ar    1  UNL1       -0.0026
      3 C         139.3405  139.3571  157.0211 C.ar    1  UNL1       -0.0001
      4 C         139.1869  139.4526  158.5102 C.ar    1  UNL1        0.0045
      5 C         140.2955  138.9919  159.4096 C.ar    1  UNL1        0.0534
      6 C         141.5576  138.4358  158.8200 C.ar    1  UNL1        0.0019
      7 C         140.1419  139.0874  160.8987 C.2     1  UNL1        0.2495
      8 O         141.3034  139.5138  161.7466 O.2     1  UNL1       -0.2698
      9 N         138.8267  138.7566  161.5397 N.am    1  UNL1       -0.2804
     10 H         138.0643  138.4768  160.9832 H       1  UNL1        0.1552
     11 C         138.6731  138.8521  163.0288 C.ar    1  UNL1        0.0505
     12 C         138.2387  140.1432  163.6567 C.ar    1  UNL1        0.0144
     13 C         138.0851  140.2387  165.1457 C.ar    1  UNL1       -0.0016
     14 C         138.3659  139.0432  166.0069 C.ar    1  UNL1       -0.0061
     15 C         138.8003  137.7520  165.3790 C.ar    1  UNL1       -0.0016
     16 C         138.9539  137.6564  163.8900 C.ar    1  UNL1        0.0144
     17 C         138.2123  139.1387  167.4960 C.3     1  UNL1        0.0992
     18 N         139.2746  139.8059  168.3182 N.3     1  UNL1       -0.2665
     19 C         138.9627  140.2755  169.7083 C.3     1  UNL1        0.0899
     20 C         140.6488  140.0035  167.7505 C.3     1  UNL1        0.0899
     21 C         142.9734  137.7840  156.7413 C.3     1  UNL1        0.1166
     22 C         142.7184  135.2293  156.3433 C.2     1  UNL1        0.2461
     23 O         141.6387  135.4940  155.3363 O.2     1  UNL1       -0.2701
     24 N         143.3857  136.3744  157.0458 N.am    1  UNL1       -0.2969
     25 H         144.0944  136.2007  157.7068 H       1  UNL1        0.1501
     26 C         143.9555  131.0003  157.2568 C.ar    1  UNL1        0.1347
     27 C         144.7137  132.1489  157.8532 C.ar    1  UNL1        0.0367
     28 C         144.3013  133.5586  157.5487 C.ar    1  UNL1        0.0076
     29 C         143.1308  133.8196  156.6478 C.ar    1  UNL1        0.0532
     30 C         142.3726  132.6710  156.0514 C.ar    1  UNL1        0.0032
     31 C         142.7850  131.2613  156.3560 C.ar    1  UNL1        0.0123
     32 C         142.0267  130.1126  155.7595 C.3     1  UNL1        0.0342
     33 C         143.6602  128.8173  158.6343 C.3     1  UNL1        0.2525
     34 O         144.3679  129.5906  157.5614 O.3     1  UNL1       -0.4717
@<TRIPOS>BOND
     1    33    34    1
     2    34    26    1
     3    26    27   ar
     4    27    28   ar
     5    28    29   ar
     6    29    22    1
     7    22    23    2
     8    22    24   am
     9    24    21    1
    10    21     1    1
    11     1     2   ar
    12     2     3   ar
    13     3     4   ar
    14     4     5   ar
    15     5     7    1
    16     7     8    2
    17     7     9   am
    18     9    11    1
    19    11    12   ar
    20    12    13   ar
    21    13    14   ar
    22    14    17    1
    23    17    18    1
    24    18    19    1
    25    18    20    1
    26    14    15   ar
    27    15    16   ar
    28     5     6   ar
    29    29    30   ar
    30    30    31   ar
    31    31    32    1
    32    31    26   ar
    33     6     1   ar
    34    16    11   ar
    35    24    25    1
    36     9    10    1
@<TRIPOS>MOLECULE
*****
 34 36 0 0 0
SMALL
GASTEIGER

@<TRIPOS>ATOM
      1 C         140.0409  139.3106  156.3809 C.ar    1  UNL1       -0.0024
      2 C         138.8754  140.0104  155.7470 C.ar    1  UNL1       -0.0026
      3 C         137.8329  140.6611  156.6072 C.ar    1  UNL1       -0.0001
      4 C         137.9560  140.6119  158.1014 C.ar    1  UNL1        0.0045
      5 C         139.1216  139.9120  158.7353 C.ar    1  UNL1        0.0534
      6 C         140.1640  139.2614  157.8750 C.ar    1  UNL1        0.0019
      7 C         139.2446  139.8628  160.2294 C.2     1  UNL1        0.2495
      8 O         140.4895  140.3680  160.8964 O.2     1  UNL1       -0.2698
      9 N         138.1227  139.3083  161.0565 N.am    1  UNL1       -0.2804
     10 H         137.3057  138.9767  160.6187 H       1  UNL1        0.1552
     11 C         138.2458  139.2591  162.5506 C.ar    1  UNL1        0.0505
     12 C         137.9076  140.4682  163.3712 C.ar    1  UNL1        0.0144
     13 C         138.0306  140.4190  164.8654 C.ar    1  UNL1       -0.0016
     14 C         138.4919  139.1606  165.5389 C.ar    1  UNL1       -0.0061
     15 C         138.8302  137.9514  164.7182 C.ar    1  UNL1       -0.0016
     16 C         138.7071  138.0006  163.2241 C.ar    1  UNL1        0.0144
     17 C         138.6150  139.1114  167.0330 C.3     1  UNL1        0.0992
     18 N         139.7235  139.8533  167.7191 N.3     1  UNL1       -0.2665
     19 C         139.5113  140.4157  169.0934 C.3     1  UNL1        0.0899
     20 C         141.0441  140.0328  167.0309 C.3     1  UNL1        0.0899
     21 C         141.0834  138.6599  155.5206 C.3     1  UNL1        0.1166
     22 C         142.3868  136.5501  156.2951 C.2     1  UNL1        0.2461
     23 O         143.3608  137.4219  157.0307 O.2     1  UNL1       -0.2701
     24 N         141.2481  137.1691  155.5400 N.am    1  UNL1       -0.2969
     25 H         140.6087  136.5969  155.0572 H       1  UNL1        0.1501
     26 C         142.8808  132.0777  156.3533 C.ar    1  UNL1        0.1347
     27 C         141.7581  132.6982  155.5759 C.ar    1  UNL1        0.0367
     28 C         141.5934  134.1890  155.5565 C.ar    1  UNL1        0.0076
     29 C         142.5514  135.0593  156.3145 C.ar    1  UNL1        0.0532
     30 C         143.6741  134.4388  157.0919 C.ar    1  UNL1        0.0032
     31 C         143.8388  132.9480  157.1113 C.ar    1  UNL1        0.0123
     32 C         144.9616  132.3275  157.8888 C.3     1  UNL1        0.0342
     33 C         143.9034  129.9136  155.3429 C.3     1  UNL1        0.2525
     34 O         143.0454  130.5869  156.3727 O.3     1  UNL1       -0.4717
@<TRIPOS>BOND
     1    33    34    1
     2    34    26    1
     3    26    27   ar
     4    27    28   ar
     5    28    29   ar
     6    29    22    1
     7    22    23    2
     8    22    24   am
     9    24    21    1
    10    21     1    1
    11     1     2   ar
    12     2     3   ar
    13     3     4   ar
    14     4     5   ar
    15     5     7    1
    16     7     8    2
    17     7     9   am
    18     9    11    1
    19    11    12   ar
    20    12    13   ar
    21    13    14   ar
    22    14    17    1
    23    17    18    1
    24    18    19    1
    25    18    20    1
    26    14    15   ar
    27    15    16   ar
    28     5     6   ar
    29    29    30   ar
    30    30    31   ar
    31    31    32    1
    32    31    26   ar
    33     6     1   ar
    34    16    11   ar
    35    24    25    1
    36     9    10    1
@<TRIPOS>MOLECULE
*****
 34 36 0 0 0
SMALL
GASTEIGER

@<TRIPOS>ATOM
      1 C         141.2102  138.9030  158.6127 C.ar    1  UNL1       -0.0024
      2 C         139.9510  139.3285  157.9174 C.ar    1  UNL1       -0.0026
      3 C         138.7578  139.7542  158.7207 C.ar    1  UNL1       -0.0001
      4 C         138.8239  139.7543  160.2193 C.ar    1  UNL1        0.0045
      5 C         140.0832  139.3288  160.9145 C.ar    1  UNL1        0.0534
      6 C         141.2763  138.9032  160.1112 C.ar    1  UNL1        0.0019
      7 C         140.1493  139.3290  162.4131 C.2     1  UNL1        0.2495
      8 O         141.2063  138.5310  163.1173 O.2     1  UNL1       -0.2698
      9 N         139.1583  140.1272  163.2074 N.am    1  UNL1       -0.2804
     10 H         138.4645  140.6509  162.7452 H       1  UNL1        0.1552
     11 C         139.2243  140.1273  164.7060 C.ar    1  UNL1        0.0505
     12 C         138.4262  139.1298  165.4920 C.ar    1  UNL1        0.0144
     13 C         138.4923  139.1300  166.9905 C.ar    1  UNL1       -0.0016
     14 C         139.3565  140.1277  167.7030 C.ar    1  UNL1       -0.0061
     15 C         140.1547  141.1252  166.9170 C.ar    1  UNL1       -0.0016
     16 C         140.0886  141.1251  165.4185 C.ar    1  UNL1        0.0144
     17 C         139.4226  140.1278  169.2016 C.3     1  UNL1        0.0992
     18 N         140.7146  140.4429  169.8953 N.3     1  UNL1       -0.2665
     19 C         141.8079  139.4171  169.9467 C.3     1  UNL1        0.0899
     20 C         140.9135  141.7837  170.5377 C.3     1  UNL1        0.0899
     21 C         142.4034  138.4774  157.8094 C.3     1  UNL1        0.1166
     22 C         142.2404  136.1861  156.5956 C.2     1  UNL1        0.2461
     23 O         141.3467  136.7990  155.5586 O.2     1  UNL1       -0.2701
     24 N         142.7687  137.0252  157.7210 N.am    1  UNL1       -0.2969
     25 H         143.3553  136.6229  158.4017 H       1  UNL1        0.1501
     26 C         143.3364  131.8296  156.3306 C.ar    1  UNL1        0.1347
     27 C         142.1696  132.3583  155.5502 C.ar    1  UNL1        0.0367
     28 C         141.8042  133.8104  155.6386 C.ar    1  UNL1        0.0076
     29 C         142.6057  134.7339  156.5073 C.ar    1  UNL1        0.0532
     30 C         143.7725  134.2053  157.2877 C.ar    1  UNL1        0.0032
     31 C         144.1378  132.7531  157.1993 C.ar    1  UNL1        0.0123
     32 C         145.3047  132.2245  157.9798 C.3     1  UNL1        0.0342
     33 C         144.6438  129.9047  155.1751 C.3     1  UNL1        0.2525
     34 O         143.7017  130.3775  156.2423 O.3     1  UNL1       -0.4717
@<TRIPOS>BOND
     1    33    34    1
     2    34    26    1
     3    26    27   ar
     4    27    28   ar
     5    28    29   ar
     6    29    22    1
     7    22    23    2
     8    22    24   am
     9    24    21    1
    10    21     1    1
    11     1     2   ar
    12     2     3   ar
    13     3     4   ar
    14     4     5   ar
    15     5     7    1
    16     7     8    2
    17     7     9   am
    18     9    11    1
    19    11    12   ar
    20    12    13   ar
    21    13    14   ar
    22    14    17    1
    23    17    18    1
    24    18    19    1
    25    18    20    1
    26    14    15   ar
    27    15    16   ar
    28     5     6   ar
    29    29    30   ar
    30    30    31   ar
    31    31    32    1
    32    31    26   ar
    33     6     1   ar
    34    16    11   ar
    35    24    25    1
    36     9    10    1
@<TRIPOS>MOLECULE
*****
 34 36 0 0 0
SMALL
GASTEIGER

@<TRIPOS>ATOM
      1 C         141.5903  138.5387  158.4013 C.ar    1  UNL1       -0.0024
      2 C         140.2717  139.0341  157.8858 C.ar    1  UNL1       -0.0026
      3 C         139.1877  139.4207  158.8479 C.ar    1  UNL1       -0.0001
      4 C         139.4224  139.3119  160.3254 C.ar    1  UNL1        0.0045
      5 C         140.7411  138.8165  160.8408 C.ar    1  UNL1        0.0534
      6 C         141.8250  138.4299  159.8788 C.ar    1  UNL1        0.0019
      7 C         140.9758  138.7077  162.3184 C.2     1  UNL1        0.2495
      8 O         140.5733  137.4629  163.0521 O.2     1  UNL1       -0.2698
      9 N         141.6130  139.8438  163.0622 N.am    1  UNL1       -0.2804
     10 H         141.8772  140.6609  162.5806 H       1  UNL1        0.1552
     11 C         141.8477  139.7351  164.5397 C.ar    1  UNL1        0.0505
     12 C         140.9353  140.4415  165.4981 C.ar    1  UNL1        0.0144
     13 C         141.1700  140.3327  166.9756 C.ar    1  UNL1       -0.0016
     14 C         142.3171  139.5175  167.4948 C.ar    1  UNL1       -0.0061
     15 C         143.2296  138.8110  166.5364 C.ar    1  UNL1       -0.0016
     16 C         142.9949  138.9198  165.0589 C.ar    1  UNL1        0.0144
     17 C         142.5518  139.4087  168.9723 C.3     1  UNL1        0.0992
     18 N         142.3929  140.6162  169.8479 N.3     1  UNL1       -0.2665
     19 C         143.3977  141.7279  169.7820 C.3     1  UNL1        0.0899
     20 C         141.2291  140.7120  170.7893 C.3     1  UNL1        0.0899
     21 C         142.6743  138.1520  157.4392 C.3     1  UNL1        0.1166
     22 C         142.2368  135.7469  156.5595 C.2     1  UNL1        0.2461
     23 O         140.9618  136.2124  155.9212 O.2     1  UNL1       -0.2701
     24 N         143.0931  136.7167  157.3185 N.am    1  UNL1       -0.2969
     25 H         143.9300  136.4112  157.7375 H       1  UNL1        0.1501
     26 C         143.4931  131.4410  156.1975 C.ar    1  UNL1        0.1347
     27 C         142.3144  131.9463  155.4195 C.ar    1  UNL1        0.0367
     28 C         141.8957  133.3816  155.5402 C.ar    1  UNL1        0.0076
     29 C         142.6556  134.3116  156.4388 C.ar    1  UNL1        0.0532
     30 C         143.8343  133.8063  157.2168 C.ar    1  UNL1        0.0032
     31 C         144.2530  132.3710  157.0961 C.ar    1  UNL1        0.0123
     32 C         145.4318  131.8657  157.8742 C.3     1  UNL1        0.0342
     33 C         144.7346  129.5605  154.9043 C.3     1  UNL1        0.2525
     34 O         143.9119  130.0057  156.0768 O.3     1  UNL1       -0.4717
@<TRIPOS>BOND
     1    33    34    1
     2    34    26    1
     3    26    27   ar
     4    27    28   ar
     5    28    29   ar
     6    29    22    1
     7    22    23    2
     8    22    24   am
     9    24    21    1
    10    21     1    1
    11     1     2   ar
    12     2     3   ar
    13     3     4   ar
    14     4     5   ar
    15     5     7    1
    16     7     8    2
    17     7     9   am
    18     9    11    1
    19    11    12   ar
    20    12    13   ar
    21    13    14   ar
    22    14    17    1
    23    17    18    1
    24    18    19    1
    25    18    20    1
    26    14    15   ar
    27    15    16   ar
    28     5     6   ar
    29    29    30   ar
    30    30    31   ar
    31    31    32    1
    32    31    26   ar
    33     6     1   ar
    34    16    11   ar
    35    24    25    1
    36     9    10    1
@<TRIPOS>MOLECULE
*****
 34 36 0 0 0
SMALL
GASTEIGER

@<TRIPOS>ATOM
      1 C         142.2579  137.6247  156.8638 C.ar    1  UNL1       -0.0024
      2 C         141.1371  137.8482  155.8923 C.ar    1  UNL1       -0.0026
      3 C         139.8069  138.3393  156.3819 C.ar    1  UNL1       -0.0001
      4 C         139.5977  138.6068  157.8430 C.ar    1  UNL1        0.0045
      5 C         140.7186  138.3832  158.8144 C.ar    1  UNL1        0.0534
      6 C         142.0486  137.8922  158.3248 C.ar    1  UNL1        0.0019
      7 C         140.5093  138.6507  160.2755 C.2     1  UNL1        0.2495
      8 O         141.4978  139.4857  161.0342 O.2     1  UNL1       -0.2698
      9 N         139.3115  138.0832  160.9778 N.am    1  UNL1       -0.2804
     10 H         138.6627  137.5351  160.4799 H       1  UNL1        0.1552
     11 C         139.1023  138.3506  162.4389 C.ar    1  UNL1        0.0505
     12 C         139.5782  137.3589  163.4586 C.ar    1  UNL1        0.0144
     13 C         139.3689  137.6264  164.9197 C.ar    1  UNL1       -0.0016
     14 C         138.6837  138.8856  165.3610 C.ar    1  UNL1       -0.0061
     15 C         138.2078  139.8775  164.3412 C.ar    1  UNL1       -0.0016
     16 C         138.4170  139.6100  162.8802 C.ar    1  UNL1        0.0144
     17 C         138.4745  139.1531  166.8220 C.3     1  UNL1        0.0992
     18 N         139.5238  139.8807  167.6091 N.3     1  UNL1       -0.2665
     19 C         139.2631  140.2578  169.0373 C.3     1  UNL1        0.0899
     20 C         140.8337  140.2312  166.9679 C.3     1  UNL1        0.0899
     21 C         143.5881  137.1336  156.3742 C.3     1  UNL1        0.1166
     22 C         143.6900  134.5441  156.5589 C.2     1  UNL1        0.2461
     23 O         143.5753  134.6461  158.0510 O.2     1  UNL1       -0.2701
     24 N         143.6964  135.7879  155.7205 N.am    1  UNL1       -0.2969
     25 H         143.7717  135.7210  154.7412 H       1  UNL1        0.1501
     26 C         144.0151  130.5070  154.5979 C.ar    1  UNL1        0.1347
     27 C         144.8458  130.8229  155.8062 C.ar    1  UNL1        0.0367
     28 C         144.7375  132.1687  156.4599 C.ar    1  UNL1        0.0076
     29 C         143.7984  133.1984  155.9053 C.ar    1  UNL1        0.0532
     30 C         142.9677  132.8825  154.6970 C.ar    1  UNL1        0.0032
     31 C         143.0760  131.5368  154.0433 C.ar    1  UNL1        0.0123
     32 C         142.2452  131.2208  152.8349 C.3     1  UNL1        0.0342
     33 C         145.2130  128.8971  152.9477 C.3     1  UNL1        0.2525
     34 O         144.1234  129.1613  153.9442 O.3     1  UNL1       -0.4717
@<TRIPOS>BOND
     1    33    34    1
     2    34    26    1
     3    26    27   ar
     4    27    28   ar
     5    28    29   ar
     6    29    22    1
     7    22    23    2
     8    22    24   am
     9    24    21    1
    10    21     1    1
    11     1     2   ar
    12     2     3   ar
    13     3     4   ar
    14     4     5   ar
    15     5     7    1
    16     7     8    2
    17     7     9   am
    18     9    11    1
    19    11    12   ar
    20    12    13   ar
    21    13    14   ar
    22    14    17    1
    23    17    18    1
    24    18    19    1
    25    18    20    1
    26    14    15   ar
    27    15    16   ar
    28     5     6   ar
    29    29    30   ar
    30    30    31   ar
    31    31    32    1
    32    31    26   ar
    33     6     1   ar
    34    16    11   ar
    35    24    25    1
    36     9    10    1
@<TRIPOS>MOLECULE
*****
 34 36 0 0 0
SMALL
GASTEIGER

@<TRIPOS>ATOM
      1 C         138.3448  140.3970  157.5096 C.ar    1  UNL1       -0.0024
      2 C         139.2192  139.3024  156.9737 C.ar    1  UNL1       -0.0026
      3 C         139.9692  138.4110  157.9186 C.ar    1  UNL1       -0.0001
      4 C         139.8448  138.6143  159.3996 C.ar    1  UNL1        0.0045
      5 C         138.9704  139.7089  159.9356 C.ar    1  UNL1        0.0534
      6 C         138.2204  140.6003  158.9906 C.ar    1  UNL1        0.0019
      7 C         138.8460  139.9122  161.4165 C.2     1  UNL1        0.2495
      8 O         137.5743  140.4589  161.9943 O.2     1  UNL1       -0.2698
      9 N         139.9934  139.5687  162.3197 N.am    1  UNL1       -0.2804
     10 H         140.8280  139.2098  161.9404 H       1  UNL1        0.1552
     11 C         139.8690  139.7719  163.8006 C.ar    1  UNL1        0.0505
     12 C         140.1897  141.1072  164.4039 C.ar    1  UNL1        0.0144
     13 C         140.0653  141.3105  165.8849 C.ar    1  UNL1       -0.0016
     14 C         139.6202  140.1784  166.7625 C.ar    1  UNL1       -0.0061
     15 C         139.2994  138.8430  166.1592 C.ar    1  UNL1       -0.0016
     16 C         139.4238  138.6398  164.6783 C.ar    1  UNL1        0.0144
     17 C         139.4958  140.3817  168.2435 C.3     1  UNL1        0.0992
     18 N         140.6409  140.0326  169.1472 N.3     1  UNL1       -0.2665
     19 C         140.4323  139.9672  170.6312 C.3     1  UNL1        0.0899
     20 C         141.9947  139.7489  168.5670 C.3     1  UNL1        0.0899
     21 C         137.5948  141.2884  156.5647 C.3     1  UNL1        0.1166
     22 C         135.2576  140.3145  155.9826 C.2     1  UNL1        0.2461
     23 O         135.9124  139.1786  155.2540 O.2     1  UNL1       -0.2701
     24 N         136.0988  141.3694  156.6379 N.am    1  UNL1       -0.2969
     25 H         135.6690  142.1150  157.1161 H       1  UNL1        0.1501
     26 C         130.7695  140.5574  156.2024 C.ar    1  UNL1        0.1347
     27 C         131.5275  141.4846  155.2992 C.ar    1  UNL1        0.0367
     28 C         133.0235  141.4036  155.2259 C.ar    1  UNL1        0.0076
     29 C         133.7616  140.3955  156.0559 C.ar    1  UNL1        0.0532
     30 C         133.0036  139.4683  156.9591 C.ar    1  UNL1        0.0032
     31 C         131.5076  139.5493  157.0323 C.ar    1  UNL1        0.0123
     32 C         130.7496  138.6220  157.9356 C.3     1  UNL1        0.0342
     33 C         128.4524  140.4887  155.0293 C.3     1  UNL1        0.2525
     34 O         129.2735  140.6384  156.2756 O.3     1  UNL1       -0.4717
@<TRIPOS>BOND
     1    33    34    1
     2    34    26    1
     3    26    27   ar
     4    27    28   ar
     5    28    29   ar
     6    29    22    1
     7    22    23    2
     8    22    24   am
     9    24    21    1
    10    21     1    1
    11     1     2   ar
    12     2     3   ar
    13     3     4   ar
    14     4     5   ar
    15     5     7    1
    16     7     8    2
    17     7     9   am
    18     9    11    1
    19    11    12   ar
    20    12    13   ar
    21    13    14   ar
    22    14    17    1
    23    17    18    1
    24    18    19    1
    25    18    20    1
    26    14    15   ar
    27    15    16   ar
    28     5     6   ar
    29    29    30   ar
    30    30    31   ar
    31    31    32    1
    32    31    26   ar
    33     6     1   ar
    34    16    11   ar
    35    24    25    1
    36     9    10    1
@<TRIPOS>MOLECULE
*****
 34 36 0 0 0
SMALL
GASTEIGER

@<TRIPOS>ATOM
      1 C         137.6754  142.9568  155.7695 C.ar    1  UNL1       -0.0024
      2 C         138.5871  144.0299  155.2527 C.ar    1  UNL1       -0.0026
      3 C         139.6064  144.6501  156.1619 C.ar    1  UNL1       -0.0001
      4 C         139.7139  144.1972  157.5878 C.ar    1  UNL1        0.0045
      5 C         138.8021  143.1240  158.1046 C.ar    1  UNL1        0.0534
      6 C         137.7828  142.5039  157.1955 C.ar    1  UNL1        0.0019
      7 C         138.9095  142.6711  159.5305 C.2     1  UNL1        0.2495
      8 O         138.7068  141.2255  159.8756 O.2     1  UNL1       -0.2698
      9 N         139.2197  143.6638  160.6115 N.am    1  UNL1       -0.2804
     10 H         139.3528  144.6126  160.3850 H       1  UNL1        0.1552
     11 C         139.3272  143.2109  162.0374 C.ar    1  UNL1        0.0505
     12 C         138.1697  143.3976  162.9729 C.ar    1  UNL1        0.0144
     13 C         138.2772  142.9447  164.3988 C.ar    1  UNL1       -0.0016
     14 C         139.5421  142.3050  164.8893 C.ar    1  UNL1       -0.0061
     15 C         140.6997  142.1182  163.9537 C.ar    1  UNL1       -0.0016
     16 C         140.5923  142.5711  162.5278 C.ar    1  UNL1        0.0144
     17 C         139.6496  141.8520  166.3152 C.3     1  UNL1        0.0992
     18 N         139.2653  140.4509  166.6880 N.3     1  UNL1       -0.2665
     19 C         138.5225  139.5911  165.7088 C.3     1  UNL1        0.0899
     20 C         139.6239  139.9095  168.0402 C.3     1  UNL1        0.0899
     21 C         136.6561  142.3366  154.8604 C.3     1  UNL1        0.1166
     22 C         134.8674  140.6341  155.6679 C.2     1  UNL1        0.2461
     23 O         135.8405  139.5121  155.4577 O.2     1  UNL1       -0.2701
     24 N         135.2752  142.0463  155.3692 N.am    1  UNL1       -0.2969
     25 H         134.6365  142.7827  155.5071 H       1  UNL1        0.1501
     26 C         130.7248  139.7632  157.1943 C.ar    1  UNL1        0.1347
     27 C         131.9067  139.0550  157.7870 C.ar    1  UNL1        0.0367
     28 C         133.2876  139.3453  157.2782 C.ar    1  UNL1        0.0076
     29 C         133.4865  140.3438  156.1767 C.ar    1  UNL1        0.0532
     30 C         132.3046  141.0520  155.5839 C.ar    1  UNL1        0.0032
     31 C         130.9237  140.7617  156.0927 C.ar    1  UNL1        0.0123
     32 C         129.7417  141.4699  155.5000 C.3     1  UNL1        0.0342
     33 C         129.1607  138.7386  158.9981 C.3     1  UNL1        0.2525
     34 O         129.3439  139.4729  157.7031 O.3     1  UNL1       -0.4717
@<TRIPOS>BOND
     1    33    34    1
     2    34    26    1
     3    26    27   ar
     4    27    28   ar
     5    28    29   ar
     6    29    22    1
     7    22    23    2
     8    22    24   am
     9    24    21    1
    10    21     1    1
    11     1     2   ar
    12     2     3   ar
    13     3     4   ar
    14     4     5   ar
    15     5     7    1
    16     7     8    2
    17     7     9   am
    18     9    11    1
    19    11    12   ar
    20    12    13   ar
    21    13    14   ar
    22    14    17    1
    23    17    18    1
    24    18    19    1
    25    18    20    1
    26    14    15   ar
    27    15    16   ar
    28     5     6   ar
    29    29    30   ar
    30    30    31   ar
    31    31    32    1
    32    31    26   ar
    33     6     1   ar
    34    16    11   ar
    35    24    25    1
    36     9    10    1
@<TRIPOS>MOLECULE
*****
 34 36 0 0 0
SMALL
GASTEIGER

@<TRIPOS>ATOM
      1 C         138.0545  141.4022  162.0328 C.ar    1  UNL1       -0.0024
      2 C         138.1176  142.7398  161.3568 C.ar    1  UNL1       -0.0026
      3 C         138.7230  142.8614  159.9897 C.ar    1  UNL1       -0.0001
      4 C         139.2651  141.6455  159.2987 C.ar    1  UNL1        0.0045
      5 C         139.2020  140.3079  159.9747 C.ar    1  UNL1        0.0534
      6 C         138.5967  140.1863  161.3417 C.ar    1  UNL1        0.0019
      7 C         139.7442  139.0920  159.2836 C.2     1  UNL1        0.2495
      8 O         139.5843  137.7389  159.9110 O.2     1  UNL1       -0.2698
      9 N         140.4463  139.2292  157.9652 N.am    1  UNL1       -0.2804
     10 H         140.5513  140.1173  157.5534 H       1  UNL1        0.1552
     11 C         140.9885  138.0133  157.2741 C.ar    1  UNL1        0.0505
     12 C         140.1706  137.3192  156.2257 C.ar    1  UNL1        0.0144
     13 C         140.7128  136.1033  155.5346 C.ar    1  UNL1       -0.0016
     14 C         142.0729  135.5814  155.8920 C.ar    1  UNL1       -0.0061
     15 C         142.8909  136.2755  156.9405 C.ar    1  UNL1       -0.0016
     16 C         142.3487  137.4915  157.6315 C.ar    1  UNL1        0.0144
     17 C         142.6151  134.3655  155.2009 C.3     1  UNL1        0.0992
     18 N         142.2432  132.9969  155.6893 N.3     1  UNL1       -0.2665
     19 C         141.1354  132.2376  155.0213 C.3     1  UNL1        0.0899
     20 C         142.9791  132.3876  156.8457 C.3     1  UNL1        0.0899
     21 C         137.4492  141.2806  163.3999 C.3     1  UNL1        0.1166
     22 C         138.8762  139.9424  165.1094 C.2     1  UNL1        0.2461
     23 O         138.5355  138.6677  164.3960 O.2     1  UNL1       -0.2701
     24 N         138.3331  141.2488  164.6113 N.am    1  UNL1       -0.2969
     25 H         138.5567  142.0854  165.0796 H       1  UNL1        0.1501
     26 C         141.5280  139.8471  168.7439 C.ar    1  UNL1        0.1347
     27 C         142.1172  139.6410  167.3799 C.ar    1  UNL1        0.0367
     28 C         141.2333  139.6728  166.1685 C.ar    1  UNL1        0.0076
     29 C         139.7601  139.9106  166.3209 C.ar    1  UNL1        0.0532
     30 C         139.1709  140.1166  167.6848 C.ar    1  UNL1        0.0032
     31 C         140.0548  140.0849  168.8963 C.ar    1  UNL1        0.0123
     32 C         139.4655  140.2909  170.2603 C.3     1  UNL1        0.0342
     33 C         143.3150  140.9747  170.2554 C.3     1  UNL1        0.2525
     34 O         142.4119  139.8153  169.9553 O.3     1  UNL1       -0.4717
@<TRIPOS>BOND
     1    33    34    1
     2    34    26    1
     3    26    27   ar
     4    27    28   ar
     5    28    29   ar
     6    29    22    1
     7    22    23    2
     8    22    24   am
     9    24    21    1
    10    21     1    1
    11     1     2   ar
    12     2     3   ar
    13     3     4   ar
    14     4     5   ar
    15     5     7    1
    16     7     8    2
    17     7     9   am
    18     9    11    1
    19    11    12   ar
    20    12    13   ar
    21    13    14   ar
    22    14    17    1
    23    17    18    1
    24    18    19    1
    25    18    20    1
    26    14    15   ar
    27    15    16   ar
    28     5     6   ar
    29    29    30   ar
    30    30    31   ar
    31    31    32    1
    32    31    26   ar
    33     6     1   ar
    34    16    11   ar
    35    24    25    1
    36     9    10    1
