@<TRIPOS>MOLECULE
*****
 38 42 0 0 0
SMALL
GASTEIGER

@<TRIPOS>ATOM
      1 C         141.7044  144.6330  162.9836 C.3     1  UNL1        0.1439
      2 C         142.5573  144.5082  164.2113 C.3     1  UNL1        0.0336
      3 C         143.8433  143.7382  164.1561 C.3     1  UNL1        0.0209
      4 C         144.2766  143.0930  162.8732 C.3     1  UNL1        0.0844
      5 C         143.4238  143.2177  161.6455 C.3     1  UNL1        0.1577
      6 O         142.1377  143.9877  161.7007 O.3     1  UNL1       -0.3523
      7 C         140.4183  145.4030  163.0389 C.3     1  UNL1        0.1601
      8 O         140.2499  146.6421  162.2105 O.3     1  UNL1       -0.3800
      9 H         141.0596  146.8033  161.7014 H       1  UNL1        0.2105
     10 C         139.3007  144.9340  163.9226 C.3     1  UNL1        0.1421
     11 C         140.4310  142.4075  167.4707 C.ar    1  UNL1        0.2263
     12 C         140.0613  140.9542  167.5048 C.ar    1  UNL1        0.0578
     13 C         139.3149  140.3430  166.3562 C.ar    1  UNL1        0.0078
     14 C         138.9381  141.1851  165.1735 C.ar    1  UNL1        0.0346
     15 C         138.1917  140.5740  164.0249 C.ar    1  UNL1        0.0079
     16 C         137.8149  141.4161  162.8422 C.ar    1  UNL1        0.0609
     17 C         138.1846  142.8695  162.8081 C.ar    1  UNL1        0.2621
     18 O         137.8078  143.7116  161.6254 O.2     1  UNL1       -0.2669
     19 N         138.9310  143.4807  163.9567 N.ar    1  UNL1       -0.2780
     20 C         139.3078  142.6384  165.1394 C.ar    1  UNL1        0.1492
     21 N         140.0543  143.2496  166.2881 N.ar    1  UNL1       -0.1942
     22 C         140.4296  143.5120  169.8223 C.3     1  UNL1        0.2542
     23 O         141.1775  143.0186  168.6194 O.3     1  UNL1       -0.4561
     24 N         145.5627  142.3229  162.8179 N.3     1  UNL1       -0.2915
     25 H         146.2799  142.9173  163.2335 H       1  UNL1        0.1236
     26 C         145.6657  140.9857  163.4897 C.3     1  UNL1        0.1152
     27 C         144.4316  140.1643  163.7184 C.ar    1  UNL1        0.0765
     28 C         144.1684  139.5662  165.0685 C.ar    1  UNL1        0.0193
     29 C         142.9343  138.7446  165.2972 C.ar    1  UNL1        0.0411
     30 C         141.9636  138.5212  164.1757 C.ar    1  UNL1        0.1708
     31 C         142.2269  139.1194  162.8255 C.ar    1  UNL1        0.1682
     32 N         143.4609  139.9409  162.5969 N.ar    1  UNL1       -0.2304
     33 N         141.2562  138.8960  161.7040 N.am    1  UNL1       -0.2639
     34 C         140.0221  138.0744  161.9327 C.2     1  UNL1        0.2718
     35 O         139.0514  137.8510  160.8112 O.2     1  UNL1       -0.2707
     36 C         139.7588  137.4763  163.2828 C.3     1  UNL1        0.2898
     37 O         140.7296  137.6998  164.4043 O.3     1  UNL1       -0.4628
     38 H         141.4290  139.2885  160.8178 H       1  UNL1        0.1565
@<TRIPOS>BOND
     1    22    23    1
     2    23    11    1
     3    11    12   ar
     4    12    13   ar
     5    13    14   ar
     6    14    15   ar
     7    15    16   ar
     8    16    17   ar
     9    17    18    2
    10    17    19   ar
    11    19    10    1
    12    10     7    1
    13     7     8    1
    14     7     1    1
    15     1     2    1
    16     2     3    1
    17     3     4    1
    18     4    24    1
    19    24    26    1
    20    26    27    1
    21    27    28   ar
    22    28    29   ar
    23    29    30   ar
    24    30    31   ar
    25    31    32   ar
    26    31    33    1
    27    33    34   am
    28    34    35    2
    29    34    36    1
    30    36    37    1
    31     4     5    1
    32     5     6    1
    33    19    20   ar
    34    20    21   ar
    35    21    11   ar
    36    20    14   ar
    37     6     1    1
    38    32    27   ar
    39    37    30    1
    40     8     9    1
    41    24    25    1
    42    33    38    1
@<TRIPOS>MOLECULE
*****
 38 42 0 0 0
SMALL
GASTEIGER

@<TRIPOS>ATOM
      1 C         137.9296  142.8438  162.8698 C.3     1  UNL1        0.1439
      2 C         137.7876  141.7733  163.9109 C.3     1  UNL1        0.0336
      3 C         137.7721  140.3295  163.5048 C.3     1  UNL1        0.0209
      4 C         137.8987  139.9561  162.0575 C.3     1  UNL1        0.0844
      5 C         138.0408  141.0266  161.0164 C.3     1  UNL1        0.1577
      6 O         138.0562  142.4704  161.4225 O.3     1  UNL1       -0.3523
      7 C         137.9451  144.2878  163.2760 C.3     1  UNL1        0.1601
      8 O         137.0334  145.2673  162.5983 O.3     1  UNL1       -0.3800
      9 H         136.5051  144.8068  161.9277 H       1  UNL1        0.2105
     10 C         138.8722  144.7520  164.3599 C.3     1  UNL1        0.1421
     11 C         140.7738  141.8601  167.2358 C.ar    1  UNL1        0.2263
     12 C         142.2419  141.5668  167.1436 C.ar    1  UNL1        0.0578
     13 C         143.0762  142.2374  166.0927 C.ar    1  UNL1        0.0078
     14 C         142.4423  143.2013  165.1341 C.ar    1  UNL1        0.0346
     15 C         143.2766  143.8719  164.0833 C.ar    1  UNL1        0.0079
     16 C         142.6428  144.8359  163.1246 C.ar    1  UNL1        0.0609
     17 C         141.1746  145.1293  163.2168 C.ar    1  UNL1        0.2621
     18 O         140.5408  146.0932  162.2582 O.2     1  UNL1       -0.2669
     19 N         140.3403  144.4587  164.2676 N.ar    1  UNL1       -0.2780
     20 C         140.9742  143.4947  165.2263 C.ar    1  UNL1        0.1492
     21 N         140.1399  142.8241  166.2772 N.ar    1  UNL1       -0.1942
     22 C         140.5022  140.9610  169.6581 C.3     1  UNL1        0.2542
     23 O         139.9395  141.1896  168.2866 O.3     1  UNL1       -0.4561
     24 N         137.8832  138.5122  161.6513 N.3     1  UNL1       -0.2915
     25 H         137.3182  138.4506  160.8044 H       1  UNL1        0.1236
     26 C         139.1719  137.7998  161.3649 C.3     1  UNL1        0.1152
     27 C         140.3818  138.0697  162.2094 C.ar    1  UNL1        0.0765
     28 C         140.5838  137.3188  163.4921 C.ar    1  UNL1        0.0193
     29 C         141.7937  137.5886  164.3367 C.ar    1  UNL1        0.0411
     30 C         142.8017  138.6094  163.8985 C.ar    1  UNL1        0.1708
     31 C         142.5996  139.3604  162.6158 C.ar    1  UNL1        0.1682
     32 N         141.3897  139.0905  161.7713 N.ar    1  UNL1       -0.2304
     33 N         143.6076  140.3812  162.1776 N.am    1  UNL1       -0.2639
     34 C         144.8175  140.6511  163.0222 C.2     1  UNL1        0.2718
     35 O         145.8255  141.6719  162.5840 O.2     1  UNL1       -0.2707
     36 C         145.0195  139.9001  164.3049 C.3     1  UNL1        0.2898
     37 O         144.0116  138.8793  164.7430 O.3     1  UNL1       -0.4628
     38 H         143.4750  140.8741  161.3358 H       1  UNL1        0.1565
@<TRIPOS>BOND
     1    22    23    1
     2    23    11    1
     3    11    12   ar
     4    12    13   ar
     5    13    14   ar
     6    14    15   ar
     7    15    16   ar
     8    16    17   ar
     9    17    18    2
    10    17    19   ar
    11    19    10    1
    12    10     7    1
    13     7     8    1
    14     7     1    1
    15     1     2    1
    16     2     3    1
    17     3     4    1
    18     4    24    1
    19    24    26    1
    20    26    27    1
    21    27    28   ar
    22    28    29   ar
    23    29    30   ar
    24    30    31   ar
    25    31    32   ar
    26    31    33    1
    27    33    34   am
    28    34    35    2
    29    34    36    1
    30    36    37    1
    31     4     5    1
    32     5     6    1
    33    19    20   ar
    34    20    21   ar
    35    21    11   ar
    36    20    14   ar
    37     6     1    1
    38    32    27   ar
    39    37    30    1
    40     8     9    1
    41    24    25    1
    42    33    38    1
@<TRIPOS>MOLECULE
*****
 38 42 0 0 0
SMALL
GASTEIGER

@<TRIPOS>ATOM
      1 C         143.4679  142.0993  163.8728 C.3     1  UNL1        0.1439
      2 C         142.5300  142.7012  164.8769 C.3     1  UNL1        0.0336
      3 C         141.8109  143.9787  164.5596 C.3     1  UNL1        0.0209
      4 C         142.0296  144.6543  163.2384 C.3     1  UNL1        0.0844
      5 C         142.9675  144.0524  162.2344 C.3     1  UNL1        0.1577
      6 O         143.6867  142.7749  162.5516 O.3     1  UNL1       -0.3523
      7 C         144.1871  140.8217  164.1901 C.3     1  UNL1        0.1601
      8 O         145.5705  140.5881  163.6596 O.3     1  UNL1       -0.3800
      9 H         145.8494  141.3549  163.1351 H       1  UNL1        0.2105
     10 C         143.5228  139.7777  165.0380 C.3     1  UNL1        0.1421
     11 C         139.6268  139.8153  167.2896 C.ar    1  UNL1        0.2263
     12 C         138.4463  139.0575  166.7585 C.ar    1  UNL1        0.0578
     13 C         138.5645  138.2872  165.4768 C.ar    1  UNL1        0.0078
     14 C         139.8631  138.2746  164.7263 C.ar    1  UNL1        0.0346
     15 C         139.9812  137.5043  163.4446 C.ar    1  UNL1        0.0079
     16 C         141.2799  137.4918  162.6941 C.ar    1  UNL1        0.0609
     17 C         142.4605  138.2496  163.2252 C.ar    1  UNL1        0.2621
     18 O         143.7591  138.2371  162.4747 O.2     1  UNL1       -0.2669
     19 N         142.3423  139.0199  164.5069 N.ar    1  UNL1       -0.2780
     20 C         141.0436  139.0324  165.2574 C.ar    1  UNL1        0.1492
     21 N         140.9254  139.8027  166.5391 N.ar    1  UNL1       -0.1942
     22 C         140.6277  141.4809  169.0141 C.3     1  UNL1        0.2542
     23 O         139.5087  140.5856  168.5713 O.3     1  UNL1       -0.4561
     24 N         141.3104  145.9319  162.9211 N.3     1  UNL1       -0.2915
     25 H         141.8925  146.4399  162.2551 H       1  UNL1        0.1236
     26 C         139.9269  145.8901  162.3432 C.3     1  UNL1        0.1152
     27 C         139.2304  144.5745  162.1591 C.ar    1  UNL1        0.0765
     28 C         138.3413  144.0386  163.2417 C.ar    1  UNL1        0.0193
     29 C         137.6447  142.7229  163.0576 C.ar    1  UNL1        0.0411
     30 C         137.8374  141.9431  161.7908 C.ar    1  UNL1        0.1708
     31 C         138.7266  142.4790  160.7081 C.ar    1  UNL1        0.1682
     32 N         139.4231  143.7947  160.8923 N.ar    1  UNL1       -0.2304
     33 N         138.9193  141.6992  159.4413 N.am    1  UNL1       -0.2639
     34 C         138.2228  140.3835  159.2572 C.2     1  UNL1        0.2718
     35 O         138.4155  139.6037  157.9904 O.2     1  UNL1       -0.2707
     36 C         137.3337  139.8477  160.3399 C.3     1  UNL1        0.2898
     37 O         137.1410  140.6274  161.6067 O.3     1  UNL1       -0.4628
     38 H         139.5029  142.0510  158.7307 H       1  UNL1        0.1565
@<TRIPOS>BOND
     1    22    23    1
     2    23    11    1
     3    11    12   ar
     4    12    13   ar
     5    13    14   ar
     6    14    15   ar
     7    15    16   ar
     8    16    17   ar
     9    17    18    2
    10    17    19   ar
    11    19    10    1
    12    10     7    1
    13     7     8    1
    14     7     1    1
    15     1     2    1
    16     2     3    1
    17     3     4    1
    18     4    24    1
    19    24    26    1
    20    26    27    1
    21    27    28   ar
    22    28    29   ar
    23    29    30   ar
    24    30    31   ar
    25    31    32   ar
    26    31    33    1
    27    33    34   am
    28    34    35    2
    29    34    36    1
    30    36    37    1
    31     4     5    1
    32     5     6    1
    33    19    20   ar
    34    20    21   ar
    35    21    11   ar
    36    20    14   ar
    37     6     1    1
    38    32    27   ar
    39    37    30    1
    40     8     9    1
    41    24    25    1
    42    33    38    1
@<TRIPOS>MOLECULE
*****
 38 42 0 0 0
SMALL
GASTEIGER

@<TRIPOS>ATOM
      1 C         138.1631  140.0159  162.7491 C.3     1  UNL1        0.1439
      2 C         137.8955  140.7869  164.0076 C.3     1  UNL1        0.0336
      3 C         137.7379  142.2776  163.9548 C.3     1  UNL1        0.0209
      4 C         137.8479  142.9973  162.6433 C.3     1  UNL1        0.0844
      5 C         138.1156  142.2263  161.3848 C.3     1  UNL1        0.1577
      6 O         138.2732  140.7356  161.4377 O.3     1  UNL1       -0.3523
      7 C         138.3207  138.5251  162.8020 C.3     1  UNL1        0.1601
      8 O         137.6906  137.6663  161.7459 O.3     1  UNL1       -0.3800
      9 H         137.2220  138.2284  161.1092 H       1  UNL1        0.2105
     10 C         139.1084  137.8931  163.9111 C.3     1  UNL1        0.1421
     11 C         140.2116  139.9348  167.7665 C.ar    1  UNL1        0.2263
     12 C         141.6301  140.3555  168.0131 C.ar    1  UNL1        0.0578
     13 C         142.6809  140.0957  166.9747 C.ar    1  UNL1        0.0078
     14 C         142.3131  139.4151  165.6896 C.ar    1  UNL1        0.0346
     15 C         143.3639  139.1552  164.6511 C.ar    1  UNL1        0.0079
     16 C         142.9961  138.4747  163.3660 C.ar    1  UNL1        0.0609
     17 C         141.5776  138.0539  163.1193 C.ar    1  UNL1        0.2621
     18 O         141.2099  137.3734  161.8342 O.2     1  UNL1       -0.2669
     19 N         140.5268  138.3138  164.1578 N.ar    1  UNL1       -0.2780
     20 C         140.8947  138.9944  165.4429 C.ar    1  UNL1        0.1492
     21 N         139.8439  139.2543  166.4814 N.ar    1  UNL1       -0.1942
     22 C         139.4670  141.0801  169.9764 C.3     1  UNL1        0.2542
     23 O         139.1609  140.1947  168.8050 O.3     1  UNL1       -0.4561
     24 N         137.6904  144.4882  162.5904 N.3     1  UNL1       -0.2915
     25 H         137.0422  144.7424  163.3359 H       1  UNL1        0.1236
     26 C         138.8909  145.3750  162.7394 C.3     1  UNL1        0.1152
     27 C         140.2673  144.7788  162.7481 C.ar    1  UNL1        0.0765
     28 C         140.9751  144.5452  164.0498 C.ar    1  UNL1        0.0193
     29 C         142.3516  143.9490  164.0586 C.ar    1  UNL1        0.0411
     30 C         143.0201  143.5863  162.7657 C.ar    1  UNL1        0.1708
     31 C         142.3121  143.8199  161.4640 C.ar    1  UNL1        0.1682
     32 N         140.9358  144.4161  161.4552 N.ar    1  UNL1       -0.2304
     33 N         142.9806  143.4572  160.1711 N.am    1  UNL1       -0.2639
     34 C         144.3571  142.8610  160.1799 C.2     1  UNL1        0.2718
     35 O         145.0256  142.4983  158.8870 O.2     1  UNL1       -0.2707
     36 C         145.0649  142.6274  161.4816 C.3     1  UNL1        0.2898
     37 O         144.3964  142.9901  162.7745 O.3     1  UNL1       -0.4628
     38 H         142.5160  143.6105  159.3168 H       1  UNL1        0.1565
@<TRIPOS>BOND
     1    22    23    1
     2    23    11    1
     3    11    12   ar
     4    12    13   ar
     5    13    14   ar
     6    14    15   ar
     7    15    16   ar
     8    16    17   ar
     9    17    18    2
    10    17    19   ar
    11    19    10    1
    12    10     7    1
    13     7     8    1
    14     7     1    1
    15     1     2    1
    16     2     3    1
    17     3     4    1
    18     4    24    1
    19    24    26    1
    20    26    27    1
    21    27    28   ar
    22    28    29   ar
    23    29    30   ar
    24    30    31   ar
    25    31    32   ar
    26    31    33    1
    27    33    34   am
    28    34    35    2
    29    34    36    1
    30    36    37    1
    31     4     5    1
    32     5     6    1
    33    19    20   ar
    34    20    21   ar
    35    21    11   ar
    36    20    14   ar
    37     6     1    1
    38    32    27   ar
    39    37    30    1
    40     8     9    1
    41    24    25    1
    42    33    38    1
@<TRIPOS>MOLECULE
*****
 38 42 0 0 0
SMALL
GASTEIGER

@<TRIPOS>ATOM
      1 C         143.0060  141.4134  166.3885 C.3     1  UNL1        0.1439
      2 C         143.3446  142.1707  165.1388 C.3     1  UNL1        0.0336
      3 C         143.8742  141.4411  163.9399 C.3     1  UNL1        0.0209
      4 C         144.0651  139.9542  163.9908 C.3     1  UNL1        0.0844
      5 C         143.7264  139.1969  165.2405 C.3     1  UNL1        0.1577
      6 O         143.1969  139.9265  166.4394 O.3     1  UNL1       -0.3523
      7 C         142.4764  142.1430  167.5874 C.3     1  UNL1        0.1601
      8 O         143.4241  142.6693  168.6241 O.3     1  UNL1       -0.3800
      9 H         144.3348  142.4543  168.3685 H       1  UNL1        0.2105
     10 C         140.9991  142.3464  167.7494 C.3     1  UNL1        0.1421
     11 C         139.1563  143.8904  163.9455 C.ar    1  UNL1        0.2263
     12 C         138.1928  143.0348  163.1778 C.ar    1  UNL1        0.0578
     13 C         137.8435  141.6645  163.6780 C.ar    1  UNL1        0.0078
     14 C         138.4578  141.1498  164.9460 C.ar    1  UNL1        0.0346
     15 C         138.1085  139.7795  165.4462 C.ar    1  UNL1        0.0079
     16 C         138.7227  139.2648  166.7141 C.ar    1  UNL1        0.0609
     17 C         139.6863  140.1205  167.4819 C.ar    1  UNL1        0.2621
     18 O         140.3005  139.6058  168.7499 O.2     1  UNL1       -0.2669
     19 N         140.0356  141.4908  166.9817 N.ar    1  UNL1       -0.2780
     20 C         139.4213  142.0054  165.7137 C.ar    1  UNL1        0.1492
     21 N         139.7706  143.3758  165.2135 N.ar    1  UNL1       -0.1942
     22 C         139.7346  145.4887  161.9805 C.3     1  UNL1        0.2542
     23 O         139.5056  145.2608  163.4453 O.3     1  UNL1       -0.4561
     24 N         144.5946  139.2246  162.7919 N.3     1  UNL1       -0.2915
     25 H         145.4825  138.8067  163.0701 H       1  UNL1        0.1236
     26 C         143.7824  138.1342  162.1584 C.3     1  UNL1        0.1152
     27 C         142.3001  138.2994  161.9987 C.ar    1  UNL1        0.0765
     28 C         141.3615  137.5706  162.9140 C.ar    1  UNL1        0.0193
     29 C         139.8791  137.7358  162.7544 C.ar    1  UNL1        0.0411
     30 C         139.3355  138.6296  161.6795 C.ar    1  UNL1        0.1708
     31 C         140.2743  139.3584  160.7642 C.ar    1  UNL1        0.1682
     32 N         141.7565  139.1932  160.9238 N.ar    1  UNL1       -0.2304
     33 N         139.7307  140.2523  159.6892 N.am    1  UNL1       -0.2639
     34 C         138.2483  140.4174  159.5296 C.2     1  UNL1        0.2718
     35 O         137.7047  141.3113  158.4546 O.2     1  UNL1       -0.2707
     36 C         137.3096  139.6887  160.4449 C.3     1  UNL1        0.2898
     37 O         137.8532  138.7948  161.5198 O.3     1  UNL1       -0.4628
     38 H         140.3468  140.7306  159.0885 H       1  UNL1        0.1565
@<TRIPOS>BOND
     1    22    23    1
     2    23    11    1
     3    11    12   ar
     4    12    13   ar
     5    13    14   ar
     6    14    15   ar
     7    15    16   ar
     8    16    17   ar
     9    17    18    2
    10    17    19   ar
    11    19    10    1
    12    10     7    1
    13     7     8    1
    14     7     1    1
    15     1     2    1
    16     2     3    1
    17     3     4    1
    18     4    24    1
    19    24    26    1
    20    26    27    1
    21    27    28   ar
    22    28    29   ar
    23    29    30   ar
    24    30    31   ar
    25    31    32   ar
    26    31    33    1
    27    33    34   am
    28    34    35    2
    29    34    36    1
    30    36    37    1
    31     4     5    1
    32     5     6    1
    33    19    20   ar
    34    20    21   ar
    35    21    11   ar
    36    20    14   ar
    37     6     1    1
    38    32    27   ar
    39    37    30    1
    40     8     9    1
    41    24    25    1
    42    33    38    1
@<TRIPOS>MOLECULE
*****
 38 42 0 0 0
SMALL
GASTEIGER

@<TRIPOS>ATOM
      1 C         139.6391  143.6672  163.3137 C.3     1  UNL1        0.1439
      2 C         140.0334  143.2142  164.6882 C.3     1  UNL1        0.0336
      3 C         141.4675  143.2922  165.1210 C.3     1  UNL1        0.0209
      4 C         142.5072  143.8234  164.1793 C.3     1  UNL1        0.0844
      5 C         142.1128  144.2765  162.8048 C.3     1  UNL1        0.1577
      6 O         140.6788  144.1984  162.3720 O.3     1  UNL1       -0.3523
      7 C         138.2049  143.5892  162.8809 C.3     1  UNL1        0.1601
      8 O         137.4867  144.8292  162.4377 O.3     1  UNL1       -0.3800
      9 H         138.0887  145.5879  162.4908 H       1  UNL1        0.2105
     10 C         137.4891  142.2710  162.8913 C.3     1  UNL1        0.1421
     11 C         138.5892  138.8922  165.6524 C.ar    1  UNL1        0.2263
     12 C         139.2637  137.6681  165.1079 C.ar    1  UNL1        0.0578
     13 C         139.5716  137.5702  163.6431 C.ar    1  UNL1        0.0078
     14 C         139.2049  138.6965  162.7228 C.ar    1  UNL1        0.0346
     15 C         139.5128  138.5986  161.2580 C.ar    1  UNL1        0.0079
     16 C         139.1461  139.7248  160.3376 C.ar    1  UNL1        0.0609
     17 C         138.4715  140.9490  160.8821 C.ar    1  UNL1        0.2621
     18 O         138.1048  142.0753  159.9617 O.2     1  UNL1       -0.2669
     19 N         138.1636  141.0469  162.3469 N.ar    1  UNL1       -0.2780
     20 C         138.5304  139.9206  163.2672 C.ar    1  UNL1        0.1492
     21 N         138.2225  140.0185  164.7320 N.ar    1  UNL1       -0.1942
     22 C         139.1591  139.8108  168.0149 C.3     1  UNL1        0.2542
     23 O         138.2813  138.9901  167.1172 O.3     1  UNL1       -0.4561
     24 N         143.9413  143.9014  164.6121 N.3     1  UNL1       -0.2915
     25 H         143.9424  144.2732  165.5619 H       1  UNL1        0.1236
     26 C         144.7876  142.6631  164.6307 C.3     1  UNL1        0.1152
     27 C         144.3092  141.4174  163.9457 C.ar    1  UNL1        0.0765
     28 C         143.8061  140.2609  164.7578 C.ar    1  UNL1        0.0193
     29 C         143.3277  139.0152  164.0727 C.ar    1  UNL1        0.0411
     30 C         143.3523  138.9259  162.5756 C.ar    1  UNL1        0.1708
     31 C         143.8554  140.0825  161.7635 C.ar    1  UNL1        0.1682
     32 N         144.3338  141.3282  162.4485 N.ar    1  UNL1       -0.2304
     33 N         143.8800  139.9932  160.2663 N.am    1  UNL1       -0.2639
     34 C         143.4015  138.7474  159.5813 C.2     1  UNL1        0.2718
     35 O         143.4261  138.6582  158.0842 O.2     1  UNL1       -0.2707
     36 C         142.8985  137.5910  160.3934 C.3     1  UNL1        0.2898
     37 O         142.8739  137.6802  161.8905 O.3     1  UNL1       -0.4628
     38 H         144.2101  140.7523  159.7333 H       1  UNL1        0.1565
@<TRIPOS>BOND
     1    22    23    1
     2    23    11    1
     3    11    12   ar
     4    12    13   ar
     5    13    14   ar
     6    14    15   ar
     7    15    16   ar
     8    16    17   ar
     9    17    18    2
    10    17    19   ar
    11    19    10    1
    12    10     7    1
    13     7     8    1
    14     7     1    1
    15     1     2    1
    16     2     3    1
    17     3     4    1
    18     4    24    1
    19    24    26    1
    20    26    27    1
    21    27    28   ar
    22    28    29   ar
    23    29    30   ar
    24    30    31   ar
    25    31    32   ar
    26    31    33    1
    27    33    34   am
    28    34    35    2
    29    34    36    1
    30    36    37    1
    31     4     5    1
    32     5     6    1
    33    19    20   ar
    34    20    21   ar
    35    21    11   ar
    36    20    14   ar
    37     6     1    1
    38    32    27   ar
    39    37    30    1
    40     8     9    1
    41    24    25    1
    42    33    38    1
@<TRIPOS>MOLECULE
*****
 38 42 0 0 0
SMALL
GASTEIGER

@<TRIPOS>ATOM
      1 C         138.9866  142.3824  163.8247 C.3     1  UNL1        0.1439
      2 C         139.2557  142.9739  162.4728 C.3     1  UNL1        0.0336
      3 C         140.3856  143.9433  162.2896 C.3     1  UNL1        0.0209
      4 C         141.2465  144.3212  163.4584 C.3     1  UNL1        0.0844
      5 C         140.9774  143.7297  164.8103 C.3     1  UNL1        0.1577
      6 O         139.8475  142.7603  164.9935 O.3     1  UNL1       -0.3523
      7 C         137.8567  141.4130  164.0079 C.3     1  UNL1        0.1601
      8 O         136.4993  141.7301  163.4539 O.3     1  UNL1       -0.3800
      9 H         136.5243  142.5925  163.0106 H       1  UNL1        0.2105
     10 C         138.0842  140.1266  164.7449 C.3     1  UNL1        0.1421
     11 C         141.7531  139.9099  167.3414 C.ar    1  UNL1        0.2263
     12 C         142.8937  139.0157  166.9549 C.ar    1  UNL1        0.0578
     13 C         142.8113  138.1937  165.7029 C.ar    1  UNL1        0.0078
     14 C         141.5883  138.2659  164.8374 C.ar    1  UNL1        0.0346
     15 C         141.5059  137.4438  163.5855 C.ar    1  UNL1        0.0079
     16 C         140.2830  137.5160  162.7200 C.ar    1  UNL1        0.0609
     17 C         139.1423  138.4103  163.1064 C.ar    1  UNL1        0.2621
     18 O         137.9194  138.4825  162.2410 O.2     1  UNL1       -0.2669
     19 N         139.2247  139.2323  164.3584 N.ar    1  UNL1       -0.2780
     20 C         140.4478  139.1601  165.2239 C.ar    1  UNL1        0.1492
     21 N         140.5302  139.9821  166.4759 N.ar    1  UNL1       -0.1942
     22 C         141.3165  140.1806  169.8882 C.3     1  UNL1        0.2542
     23 O         141.8355  140.7320  168.5934 O.3     1  UNL1       -0.4561
     24 N         142.3764  145.2906  163.2752 N.3     1  UNL1       -0.2915
     25 H         142.4072  145.8689  164.1148 H       1  UNL1        0.1236
     26 C         143.7697  144.7839  163.0471 C.3     1  UNL1        0.1152
     27 C         144.0239  143.3093  162.9433 C.ar    1  UNL1        0.0765
     28 C         144.7083  142.5855  164.0647 C.ar    1  UNL1        0.0193
     29 C         144.9625  141.1108  163.9609 C.ar    1  UNL1        0.0411
     30 C         144.5324  140.3600  162.7357 C.ar    1  UNL1        0.1708
     31 C         143.8480  141.0839  161.6142 C.ar    1  UNL1        0.1682
     32 N         143.5938  142.5585  161.7180 N.ar    1  UNL1       -0.2304
     33 N         143.4178  140.3331  160.3889 N.am    1  UNL1       -0.2639
     34 C         143.6720  138.8584  160.2851 C.2     1  UNL1        0.2718
     35 O         143.2419  138.1076  159.0599 O.2     1  UNL1       -0.2707
     36 C         144.3564  138.1345  161.4066 C.3     1  UNL1        0.2898
     37 O         144.7866  138.8853  162.6318 O.3     1  UNL1       -0.4628
     38 H         142.9686  140.8082  159.6529 H       1  UNL1        0.1565
@<TRIPOS>BOND
     1    22    23    1
     2    23    11    1
     3    11    12   ar
     4    12    13   ar
     5    13    14   ar
     6    14    15   ar
     7    15    16   ar
     8    16    17   ar
     9    17    18    2
    10    17    19   ar
    11    19    10    1
    12    10     7    1
    13     7     8    1
    14     7     1    1
    15     1     2    1
    16     2     3    1
    17     3     4    1
    18     4    24    1
    19    24    26    1
    20    26    27    1
    21    27    28   ar
    22    28    29   ar
    23    29    30   ar
    24    30    31   ar
    25    31    32   ar
    26    31    33    1
    27    33    34   am
    28    34    35    2
    29    34    36    1
    30    36    37    1
    31     4     5    1
    32     5     6    1
    33    19    20   ar
    34    20    21   ar
    35    21    11   ar
    36    20    14   ar
    37     6     1    1
    38    32    27   ar
    39    37    30    1
    40     8     9    1
    41    24    25    1
    42    33    38    1
@<TRIPOS>MOLECULE
*****
 38 42 0 0 0
SMALL
GASTEIGER

@<TRIPOS>ATOM
      1 C         144.3876  140.4991  163.8257 C.3     1  UNL1        0.1439
      2 C         143.9718  139.9191  162.5063 C.3     1  UNL1        0.0336
      3 C         143.0818  138.7124  162.4645 C.3     1  UNL1        0.0209
      4 C         142.6078  138.0856  163.7421 C.3     1  UNL1        0.0844
      5 C         143.0236  138.6655  165.0615 C.3     1  UNL1        0.1577
      6 O         143.9135  139.8723  165.1033 O.3     1  UNL1       -0.3523
      7 C         145.2776  141.7059  163.8674 C.3     1  UNL1        0.1601
      8 O         146.6111  141.6784  163.1811 O.3     1  UNL1       -0.3800
      9 H         146.7414  140.8133  162.7623 H       1  UNL1        0.2105
     10 C         144.8339  142.9401  164.5954 C.3     1  UNL1        0.1421
     11 C         141.7367  141.8551  167.6742 C.ar    1  UNL1        0.2263
     12 C         140.3275  142.3473  167.5263 C.ar    1  UNL1        0.0578
     13 C         139.9508  143.2013  166.3521 C.ar    1  UNL1        0.0078
     14 C         140.9832  143.5630  165.3258 C.ar    1  UNL1        0.0346
     15 C         140.6064  144.4169  164.1515 C.ar    1  UNL1        0.0079
     16 C         141.6388  144.7786  163.1253 C.ar    1  UNL1        0.0609
     17 C         143.0481  144.2863  163.2732 C.ar    1  UNL1        0.2621
     18 O         144.0804  144.6480  162.2469 O.2     1  UNL1       -0.2669
     19 N         143.4248  143.4323  164.4474 N.ar    1  UNL1       -0.2780
     20 C         142.3923  143.0707  165.4737 C.ar    1  UNL1        0.1492
     21 N         142.7691  142.2167  166.6480 N.ar    1  UNL1       -0.1942
     22 C         142.5066  139.5689  168.6388 C.3     1  UNL1        0.2542
     23 O         142.1134  141.0011  168.8485 O.3     1  UNL1       -0.4561
     24 N         141.7178  136.8788  163.7004 N.3     1  UNL1       -0.2915
     25 H         142.0993  136.2083  164.3677 H       1  UNL1        0.1236
     26 C         140.2562  137.0137  164.0097 C.3     1  UNL1        0.1152
     27 C         139.5941  138.3574  163.9321 C.ar    1  UNL1        0.0765
     28 C         138.8597  138.9014  165.1215 C.ar    1  UNL1        0.0193
     29 C         138.1976  140.2451  165.0440 C.ar    1  UNL1        0.0411
     30 C         138.2699  141.0448  163.7770 C.ar    1  UNL1        0.1708
     31 C         139.0043  140.5008  162.5876 C.ar    1  UNL1        0.1682
     32 N         139.6664  139.1571  162.6652 N.ar    1  UNL1       -0.2304
     33 N         139.0766  141.3005  161.3206 N.am    1  UNL1       -0.2639
     34 C         138.4144  142.6443  161.2431 C.2     1  UNL1        0.2718
     35 O         138.4867  143.4440  159.9761 O.2     1  UNL1       -0.2707
     36 C         137.6800  143.1882  162.4325 C.3     1  UNL1        0.2898
     37 O         137.6077  142.3885  163.6994 O.3     1  UNL1       -0.4628
     38 H         139.5586  140.9435  160.5399 H       1  UNL1        0.1565
@<TRIPOS>BOND
     1    22    23    1
     2    23    11    1
     3    11    12   ar
     4    12    13   ar
     5    13    14   ar
     6    14    15   ar
     7    15    16   ar
     8    16    17   ar
     9    17    18    2
    10    17    19   ar
    11    19    10    1
    12    10     7    1
    13     7     8    1
    14     7     1    1
    15     1     2    1
    16     2     3    1
    17     3     4    1
    18     4    24    1
    19    24    26    1
    20    26    27    1
    21    27    28   ar
    22    28    29   ar
    23    29    30   ar
    24    30    31   ar
    25    31    32   ar
    26    31    33    1
    27    33    34   am
    28    34    35    2
    29    34    36    1
    30    36    37    1
    31     4     5    1
    32     5     6    1
    33    19    20   ar
    34    20    21   ar
    35    21    11   ar
    36    20    14   ar
    37     6     1    1
    38    32    27   ar
    39    37    30    1
    40     8     9    1
    41    24    25    1
    42    33    38    1
@<TRIPOS>MOLECULE
*****
 38 42 0 0 0
SMALL
GASTEIGER

@<TRIPOS>ATOM
      1 C         143.7171  142.4388  162.5223 C.3     1  UNL1        0.1439
      2 C         143.6038  143.4448  163.6291 C.3     1  UNL1        0.0336
      3 C         142.4967  144.4567  163.6125 C.3     1  UNL1        0.0209
      4 C         141.5028  144.4625  162.4890 C.3     1  UNL1        0.0844
      5 C         141.6161  143.4564  161.3822 C.3     1  UNL1        0.1577
      6 O         142.7232  142.4446  161.3989 O.3     1  UNL1       -0.3523
      7 C         144.8243  141.4269  162.5389 C.3     1  UNL1        0.1601
      8 O         146.2320  141.8601  162.8227 O.3     1  UNL1       -0.3800
      9 H         146.2516  142.8183  162.9720 H       1  UNL1        0.2105
     10 C         144.5237  139.9818  162.2719 C.3     1  UNL1        0.1421
     11 C         140.5151  138.8000  160.6031 C.ar    1  UNL1        0.2263
     12 C         139.5305  138.0670  161.4651 C.ar    1  UNL1        0.0578
     13 C         139.8820  137.7279  162.8834 C.ar    1  UNL1        0.0078
     14 C         141.2181  138.1218  163.4397 C.ar    1  UNL1        0.0346
     15 C         141.5696  137.7828  164.8579 C.ar    1  UNL1        0.0079
     16 C         142.9058  138.1767  165.4142 C.ar    1  UNL1        0.0609
     17 C         143.8905  138.9097  164.5521 C.ar    1  UNL1        0.2621
     18 O         145.2267  139.3036  165.1084 O.2     1  UNL1       -0.2669
     19 N         143.5390  139.2488  163.1339 N.ar    1  UNL1       -0.2780
     20 C         142.2028  138.8548  162.5776 C.ar    1  UNL1        0.1492
     21 N         141.8513  139.1939  161.1594 N.ar    1  UNL1       -0.1942
     22 C         140.9103  138.4974  158.0532 C.3     1  UNL1        0.2542
     23 O         140.1636  139.1391  159.1849 O.3     1  UNL1       -0.4561
     24 N         140.3956  145.4744  162.4724 N.3     1  UNL1       -0.2915
     25 H         140.1895  145.6692  161.4926 H       1  UNL1        0.1236
     26 C         139.0869  145.1651  163.1370 C.3     1  UNL1        0.1152
     27 C         138.8102  143.7794  163.6400 C.ar    1  UNL1        0.0765
     28 C         137.9411  142.8520  162.8434 C.ar    1  UNL1        0.0193
     29 C         137.6644  141.4662  163.3464 C.ar    1  UNL1        0.0411
     30 C         138.2567  141.0078  164.6461 C.ar    1  UNL1        0.1708
     31 C         139.1258  141.9353  165.4427 C.ar    1  UNL1        0.1682
     32 N         139.4025  143.3211  164.9396 N.ar    1  UNL1       -0.2304
     33 N         139.7182  141.4770  166.7423 N.am    1  UNL1       -0.2639
     34 C         139.4414  140.0911  167.2454 C.2     1  UNL1        0.2718
     35 O         140.0337  139.6328  168.5450 O.2     1  UNL1       -0.2707
     36 C         138.5723  139.1638  166.4488 C.3     1  UNL1        0.2898
     37 O         137.9800  139.6221  165.1491 O.3     1  UNL1       -0.4628
     38 H         140.2886  142.0857  167.2652 H       1  UNL1        0.1565
@<TRIPOS>BOND
     1    22    23    1
     2    23    11    1
     3    11    12   ar
     4    12    13   ar
     5    13    14   ar
     6    14    15   ar
     7    15    16   ar
     8    16    17   ar
     9    17    18    2
    10    17    19   ar
    11    19    10    1
    12    10     7    1
    13     7     8    1
    14     7     1    1
    15     1     2    1
    16     2     3    1
    17     3     4    1
    18     4    24    1
    19    24    26    1
    20    26    27    1
    21    27    28   ar
    22    28    29   ar
    23    29    30   ar
    24    30    31   ar
    25    31    32   ar
    26    31    33    1
    27    33    34   am
    28    34    35    2
    29    34    36    1
    30    36    37    1
    31     4     5    1
    32     5     6    1
    33    19    20   ar
    34    20    21   ar
    35    21    11   ar
    36    20    14   ar
    37     6     1    1
    38    32    27   ar
    39    37    30    1
    40     8     9    1
    41    24    25    1
    42    33    38    1
