@<TRIPOS>MOLECULE
*****
 48 53 0 0 0
SMALL
GASTEIGER

@<TRIPOS>ATOM
      1 C         143.0517  141.1816  158.2262 C.2     1  UNL1        0.2459
      2 O         144.2548  141.6639  158.9810 O.2     1  UNL1       -0.2701
      3 N         141.9616  142.1441  157.8582 N.am    1  UNL1       -0.2975
      4 H         141.1720  141.8275  157.3628 H       1  UNL1        0.1499
      5 C         142.7122  136.8469  157.0660 C.ar    1  UNL1        0.0536
      6 C         142.9237  137.8915  156.0105 C.ar    1  UNL1        0.0048
      7 C         143.0368  139.3364  156.3973 C.ar    1  UNL1        0.0047
      8 C         142.9385  139.7367  157.8395 C.ar    1  UNL1        0.0534
      9 C         142.7271  138.6921  158.8950 C.ar    1  UNL1        0.0047
     10 C         142.6139  137.2472  158.5082 C.ar    1  UNL1        0.0048
     11 C         143.4065  131.5801  156.7312 C.ar    1  UNL1        0.0143
     12 C         142.7688  130.5024  155.9053 C.ar    1  UNL1        0.0091
     13 C         141.6894  130.8497  154.9235 C.ar    1  UNL1        0.0698
     14 C         141.2475  132.2747  154.7674 C.ar    1  UNL1        0.0326
     15 C         141.8853  133.3523  155.5933 C.ar    1  UNL1        0.1192
     16 N         141.6592  134.8338  155.6576 N.ar    1  UNL1       -0.2082
     17 C         142.5991  135.4021  156.6793 C.ar    1  UNL1        0.2296
     18 O         143.4059  134.2718  157.2463 O.2     1  UNL1       -0.4349
     19 C         142.9648  133.0050  156.5751 C.ar    1  UNL1        0.1607
     20 C         145.5595  132.2308  158.0317 C.3     1  UNL1        0.0048
     21 C         144.4860  131.2327  157.7130 C.3     1  UNL1        0.0254
     22 C         144.4920  129.8873  158.3763 C.3     1  UNL1        0.0048
     23 C         141.0516  129.7720  154.0977 C.1     1  UNL1        0.1005
     24 N         140.4139  128.6944  153.2718 N.1     1  UNL1       -0.1908
     25 C         142.0748  143.5889  158.2449 C.3     1  UNL1        0.1355
     26 C         141.6023  144.0435  159.5940 C.3     1  UNL1        0.2101
     27 C         141.6320  143.2349  160.8571 C.3     1  UNL1        0.1483
     28 N         141.0652  144.0781  161.9606 N.am    1  UNL1       -0.2059
     29 C         140.6851  145.4078  161.3796 C.2     1  UNL1        0.4098
     30 O         140.0795  146.5570  162.1295 O.2     1  UNL1       -0.2258
     31 O         141.0171  145.3863  159.9169 O.3     1  UNL1       -0.4345
     32 C         140.9062  143.6642  163.3936 C.ar    1  UNL1        0.1400
     33 C         139.5581  143.7293  164.0480 C.ar    1  UNL1        0.0348
     34 C         139.3992  143.3155  165.4810 C.ar    1  UNL1        0.0045
     35 C         140.5884  142.8366  166.2597 C.ar    1  UNL1        0.0222
     36 C         141.9366  142.7715  165.6052 C.ar    1  UNL1        0.1004
     37 N         142.0955  143.1853  164.1723 N.ar    1  UNL1       -0.2287
     38 C         140.4295  142.4228  167.6926 C.ar    1  UNL1        0.0358
     39 C         140.4271  143.4594  168.7767 C.ar    1  UNL1        0.0031
     40 C         140.2682  143.0456  170.2098 C.ar    1  UNL1        0.0002
     41 C         140.1116  141.5951  170.5586 C.ar    1  UNL1        0.0031
     42 C         140.1140  140.5585  169.4745 C.ar    1  UNL1        0.0372
     43 C         140.2729  140.9724  168.0414 C.ar    1  UNL1        0.1468
     44 O         140.2753  139.9358  166.9573 O.3     1  UNL1       -0.4045
     45 C         139.0083  139.6198  166.2189 C.3     1  UNL1        0.5753
     46 F         137.7415  139.3038  165.4805 F       1  UNL1       -0.1328
     47 F         138.3561  139.2201  167.5091 F       1  UNL1       -0.1328
     48 F         139.6607  140.0194  164.9287 F       1  UNL1       -0.1328
@<TRIPOS>BOND
     1    20    21    1
     2    21    22    1
     3    21    11    1
     4    11    12   ar
     5    12    13   ar
     6    13    23    1
     7    23    24    3
     8    13    14   ar
     9    14    15   ar
    10    15    16   ar
    11    16    17   ar
    12    17     5    1
    13     5     6   ar
    14     6     7   ar
    15     7     8   ar
    16     8     1    1
    17     1     2    2
    18     1     3   am
    19     3    25    1
    20    26    25    1
    21    26    27    1
    22    27    28    1
    23    28    32    1
    24    32    33   ar
    25    33    34   ar
    26    34    35   ar
    27    35    38    1
    28    38    39   ar
    29    39    40   ar
    30    40    41   ar
    31    41    42   ar
    32    42    43   ar
    33    43    44    1
    34    44    45    1
    35    45    46    1
    36    45    47    1
    37    45    48    1
    38    35    36   ar
    39    36    37   ar
    40    28    29   am
    41    29    30    2
    42    29    31    1
    43     8     9   ar
    44     9    10   ar
    45    17    18   ar
    46    18    19   ar
    47    19    11   ar
    48    19    15   ar
    49    10     5   ar
    50    31    26    1
    51    37    32   ar
    52    43    38   ar
    53     3     4    1
@<TRIPOS>MOLECULE
*****
 48 53 0 0 0
SMALL
GASTEIGER

@<TRIPOS>ATOM
      1 C         142.5594  141.0237  157.9125 C.2     1  UNL1        0.2459
      2 O         143.7948  141.8295  158.1853 O.2     1  UNL1       -0.2701
      3 N         141.2198  141.6970  157.8658 N.am    1  UNL1       -0.2975
      4 H         140.4090  141.1680  157.6867 H       1  UNL1        0.1499
      5 C         142.8722  136.5861  157.2343 C.ar    1  UNL1        0.0536
      6 C         142.6774  137.1207  158.6221 C.ar    1  UNL1        0.0048
      7 C         142.5731  138.6000  158.8481 C.ar    1  UNL1        0.0047
      8 C         142.6637  139.5445  157.6864 C.ar    1  UNL1        0.0534
      9 C         142.8585  139.0098  156.2985 C.ar    1  UNL1        0.0047
     10 C         142.9627  137.5306  156.0725 C.ar    1  UNL1        0.0048
     11 C         142.1042  131.6221  155.4725 C.ar    1  UNL1        0.0143
     12 C         142.7559  130.3049  155.7726 C.ar    1  UNL1        0.0091
     13 C         143.8789  130.2324  156.7643 C.ar    1  UNL1        0.0698
     14 C         144.3501  131.4772  157.4561 C.ar    1  UNL1        0.0326
     15 C         143.6984  132.7944  157.1561 C.ar    1  UNL1        0.1192
     16 N         143.9463  134.1788  157.6776 N.ar    1  UNL1       -0.2082
     17 C         142.9765  135.1069  157.0081 C.ar    1  UNL1        0.2296
     18 O         142.1292  134.2961  156.0728 O.2     1  UNL1       -0.4349
     19 C         142.5754  132.8669  156.1643 C.ar    1  UNL1        0.1607
     20 C         141.0649  132.6419  153.3208 C.3     1  UNL1        0.0048
     21 C         140.9812  131.6946  154.4807 C.3     1  UNL1        0.0254
     22 C         139.7743  130.8196  154.6489 C.3     1  UNL1        0.0048
     23 C         144.5307  128.9151  157.0644 C.1     1  UNL1        0.1005
     24 N         145.1824  127.5978  157.3645 N.1     1  UNL1       -0.1908
     25 C         141.1155  143.1762  158.0919 C.3     1  UNL1        0.1355
     26 C         140.8626  143.7080  159.4714 C.3     1  UNL1        0.2101
     27 C         140.9248  142.9190  160.7456 C.3     1  UNL1        0.1483
     28 N         140.6037  143.8455  161.8807 N.am    1  UNL1       -0.2059
     29 C         140.3430  145.2073  161.3080 C.2     1  UNL1        0.4098
     30 O         139.9852  146.4379  162.0875 O.2     1  UNL1       -0.2258
     31 O         140.5031  145.1221  159.8190 O.3     1  UNL1       -0.4345
     32 C         140.5522  143.4754  163.3334 C.ar    1  UNL1        0.1400
     33 C         139.2510  143.5361  164.0772 C.ar    1  UNL1        0.0348
     34 C         139.1996  143.1661  165.5299 C.ar    1  UNL1        0.0045
     35 C         140.4493  142.7353  166.2389 C.ar    1  UNL1        0.0222
     36 C         141.7504  142.6746  165.4950 C.ar    1  UNL1        0.1004
     37 N         141.8019  143.0447  164.0424 N.ar    1  UNL1       -0.2287
     38 C         140.3978  142.3652  167.6915 C.ar    1  UNL1        0.0358
     39 C         140.4032  143.4383  168.7395 C.ar    1  UNL1        0.0031
     40 C         140.3517  143.0682  170.1922 C.ar    1  UNL1        0.0002
     41 C         140.2948  141.6250  170.5970 C.ar    1  UNL1        0.0031
     42 C         140.2895  140.5519  169.5490 C.ar    1  UNL1        0.0372
     43 C         140.3409  140.9220  168.0963 C.ar    1  UNL1        0.1468
     44 O         140.3356  139.8488  167.0483 O.3     1  UNL1       -0.4045
     45 C         139.0569  139.4859  166.3529 C.3     1  UNL1        0.5753
     46 F         137.7784  139.1231  165.6575 F       1  UNL1       -0.1328
     47 F         138.3940  139.2755  167.6818 F       1  UNL1       -0.1328
     48 F         139.7200  139.6964  165.0240 F       1  UNL1       -0.1328
@<TRIPOS>BOND
     1    20    21    1
     2    21    22    1
     3    21    11    1
     4    11    12   ar
     5    12    13   ar
     6    13    23    1
     7    23    24    3
     8    13    14   ar
     9    14    15   ar
    10    15    16   ar
    11    16    17   ar
    12    17     5    1
    13     5     6   ar
    14     6     7   ar
    15     7     8   ar
    16     8     1    1
    17     1     2    2
    18     1     3   am
    19     3    25    1
    20    26    25    1
    21    26    27    1
    22    27    28    1
    23    28    32    1
    24    32    33   ar
    25    33    34   ar
    26    34    35   ar
    27    35    38    1
    28    38    39   ar
    29    39    40   ar
    30    40    41   ar
    31    41    42   ar
    32    42    43   ar
    33    43    44    1
    34    44    45    1
    35    45    46    1
    36    45    47    1
    37    45    48    1
    38    35    36   ar
    39    36    37   ar
    40    28    29   am
    41    29    30    2
    42    29    31    1
    43     8     9   ar
    44     9    10   ar
    45    17    18   ar
    46    18    19   ar
    47    19    11   ar
    48    19    15   ar
    49    10     5   ar
    50    31    26    1
    51    37    32   ar
    52    43    38   ar
    53     3     4    1
@<TRIPOS>MOLECULE
*****
 48 53 0 0 0
SMALL
GASTEIGER

@<TRIPOS>ATOM
      1 C         143.2625  138.8790  156.3770 C.2     1  UNL1        0.2459
      2 O         143.1116  139.8589  155.2514 O.2     1  UNL1       -0.2701
      3 N         143.7442  139.3461  157.7186 N.am    1  UNL1       -0.2975
      4 H         143.8432  138.7029  158.4573 H       1  UNL1        0.1499
      5 C         142.2698  134.5379  155.7290 C.ar    1  UNL1        0.0536
      6 C         143.6998  134.9667  155.8745 C.ar    1  UNL1        0.0048
      7 C         144.0307  136.4137  156.0905 C.ar    1  UNL1        0.0047
      8 C         142.9316  137.4320  156.1610 C.ar    1  UNL1        0.0534
      9 C         141.5015  137.0033  156.0155 C.ar    1  UNL1        0.0047
     10 C         141.1707  135.5563  155.7995 C.ar    1  UNL1        0.0048
     11 C         142.3313  129.2161  155.8195 C.ar    1  UNL1        0.0143
     12 C         141.4506  128.1605  155.2195 C.ar    1  UNL1        0.0091
     13 C         140.2624  128.5554  154.3937 C.ar    1  UNL1        0.0698
     14 C         139.9548  130.0061  154.1678 C.ar    1  UNL1        0.0326
     15 C         140.8355  131.0617  154.7677 C.ar    1  UNL1        0.1192
     16 N         140.7830  132.5600  154.7179 N.ar    1  UNL1       -0.2082
     17 C         141.9388  133.0909  155.5130 C.ar    1  UNL1        0.2296
     18 O         142.7057  131.9208  156.0542 O.2     1  UNL1       -0.4349
     19 C         142.0238  130.6667  155.5936 C.ar    1  UNL1        0.1607
     20 C         144.8104  128.4545  155.9749 C.3     1  UNL1        0.0048
     21 C         143.5196  128.8210  156.6453 C.3     1  UNL1        0.0254
     22 C         143.4170  128.7926  158.1416 C.3     1  UNL1        0.0048
     23 C         139.3817  127.4997  153.7937 C.1     1  UNL1        0.1005
     24 N         138.5009  126.4441  153.1937 N.1     1  UNL1       -0.1908
     25 C         144.0752  140.7931  157.9346 C.3     1  UNL1        0.1355
     26 C         143.9847  141.3860  159.3094 C.3     1  UNL1        0.2101
     27 C         143.3996  140.7207  160.5198 C.3     1  UNL1        0.1483
     28 N         143.5168  141.6718  161.6737 N.am    1  UNL1       -0.2059
     29 C         144.1743  142.9250  161.1765 C.2     1  UNL1        0.4098
     30 O         144.4876  144.1413  161.9966 O.2     1  UNL1       -0.2258
     31 O         144.4635  142.7483  159.7153 O.3     1  UNL1       -0.4345
     32 C         143.0571  141.4149  163.0782 C.ar    1  UNL1        0.1400
     33 C         143.5666  140.2193  163.8273 C.ar    1  UNL1        0.0348
     34 C         143.1069  139.9624  165.2318 C.ar    1  UNL1        0.0045
     35 C         142.1378  140.9010  165.8873 C.ar    1  UNL1        0.0222
     36 C         141.6283  142.0966  165.1382 C.ar    1  UNL1        0.1004
     37 N         142.0879  142.3535  163.7338 N.ar    1  UNL1       -0.2287
     38 C         141.6782  140.6441  167.2918 C.ar    1  UNL1        0.0358
     39 C         142.6346  140.8074  168.4357 C.ar    1  UNL1        0.0031
     40 C         142.1750  140.5505  169.8402 C.ar    1  UNL1        0.0002
     41 C         140.7588  140.1303  170.1009 C.ar    1  UNL1        0.0031
     42 C         139.8023  139.9670  168.9570 C.ar    1  UNL1        0.0372
     43 C         140.2620  140.2239  167.5525 C.ar    1  UNL1        0.1468
     44 O         139.3055  140.0607  166.4086 O.3     1  UNL1       -0.4045
     45 C         138.8117  138.6949  166.0329 C.3     1  UNL1        0.5753
     46 F         138.3179  137.3293  165.6573 F       1  UNL1       -0.1328
     47 F         137.4606  139.0298  166.5918 F       1  UNL1       -0.1328
     48 F         140.1628  138.3601  165.4740 F       1  UNL1       -0.1328
@<TRIPOS>BOND
     1    20    21    1
     2    21    22    1
     3    21    11    1
     4    11    12   ar
     5    12    13   ar
     6    13    23    1
     7    23    24    3
     8    13    14   ar
     9    14    15   ar
    10    15    16   ar
    11    16    17   ar
    12    17     5    1
    13     5     6   ar
    14     6     7   ar
    15     7     8   ar
    16     8     1    1
    17     1     2    2
    18     1     3   am
    19     3    25    1
    20    26    25    1
    21    26    27    1
    22    27    28    1
    23    28    32    1
    24    32    33   ar
    25    33    34   ar
    26    34    35   ar
    27    35    38    1
    28    38    39   ar
    29    39    40   ar
    30    40    41   ar
    31    41    42   ar
    32    42    43   ar
    33    43    44    1
    34    44    45    1
    35    45    46    1
    36    45    47    1
    37    45    48    1
    38    35    36   ar
    39    36    37   ar
    40    28    29   am
    41    29    30    2
    42    29    31    1
    43     8     9   ar
    44     9    10   ar
    45    17    18   ar
    46    18    19   ar
    47    19    11   ar
    48    19    15   ar
    49    10     5   ar
    50    31    26    1
    51    37    32   ar
    52    43    38   ar
    53     3     4    1
@<TRIPOS>MOLECULE
*****
 48 53 0 0 0
SMALL
GASTEIGER

@<TRIPOS>ATOM
      1 C         143.8463  142.5548  160.3044 C.2     1  UNL1        0.2459
      2 O         145.3431  142.5635  160.2069 O.2     1  UNL1       -0.2701
      3 N         143.0135  142.7888  159.0789 N.am    1  UNL1       -0.2975
      4 H         142.0311  142.7830  159.1430 H       1  UNL1        0.1499
      5 C         141.8545  141.8267  164.2734 C.ar    1  UNL1        0.0536
      6 C         143.0657  141.0315  163.8850 C.ar    1  UNL1        0.0048
      7 C         143.7296  141.2743  162.5619 C.ar    1  UNL1        0.0047
      8 C         143.1824  142.3121  161.6273 C.ar    1  UNL1        0.0534
      9 C         141.9712  143.1073  162.0157 C.ar    1  UNL1        0.0047
     10 C         141.3073  142.8645  163.3388 C.ar    1  UNL1        0.0048
     11 C         140.3462  142.1565  169.3675 C.ar    1  UNL1        0.0143
     12 C         139.3951  141.3684  170.2184 C.ar    1  UNL1        0.0091
     13 C         138.6428  140.2124  169.6289 C.ar    1  UNL1        0.0698
     14 C         138.8416  139.8444  168.1883 C.ar    1  UNL1        0.0326
     15 C         139.7928  140.6326  167.3374 C.ar    1  UNL1        0.1192
     16 N         140.1917  140.5061  165.8970 N.ar    1  UNL1       -0.2082
     17 C         141.1906  141.5840  165.5963 C.ar    1  UNL1        0.2296
     18 O         141.4089  142.3767  166.8509 O.2     1  UNL1       -0.4349
     19 C         140.5450  141.7887  167.9270 C.ar    1  UNL1        0.1607
     20 C         142.5536  143.1684  170.2913 C.3     1  UNL1        0.0048
     21 C         141.0985  143.3126  169.9571 C.3     1  UNL1        0.0254
     22 C         140.3955  144.6129  170.2125 C.3     1  UNL1        0.0048
     23 C         137.6916  139.4241  170.4799 C.1     1  UNL1        0.1005
     24 N         136.7405  138.6359  171.3308 N.1     1  UNL1       -0.1908
     25 C         143.6775  143.0314  157.7560 C.3     1  UNL1        0.1355
     26 C         143.8807  141.8944  156.7990 C.3     1  UNL1        0.2101
     27 C         143.3021  140.5168  156.9311 C.3     1  UNL1        0.1483
     28 N         143.7619  139.7063  155.7557 N.am    1  UNL1       -0.2059
     29 C         144.6248  140.5829  154.8972 C.2     1  UNL1        0.4098
     30 O         145.2963  140.1783  153.6184 O.2     1  UNL1       -0.2258
     31 O         144.6981  141.9353  155.5421 O.3     1  UNL1       -0.4345
     32 C         143.4192  138.2710  155.4861 C.ar    1  UNL1        0.1400
     33 C         142.0211  137.8947  155.0941 C.ar    1  UNL1        0.0348
     34 C         141.6783  136.4595  154.8245 C.ar    1  UNL1        0.0045
     35 C         142.7336  135.4006  154.9469 C.ar    1  UNL1        0.0222
     36 C         144.1317  135.7770  155.3390 C.ar    1  UNL1        0.1004
     37 N         144.4745  137.2121  155.6086 N.ar    1  UNL1       -0.2287
     38 C         142.3909  133.9654  154.6774 C.ar    1  UNL1        0.0358
     39 C         142.0927  133.5157  153.2778 C.ar    1  UNL1        0.0031
     40 C         141.7500  132.0804  153.0082 C.ar    1  UNL1        0.0002
     41 C         141.7054  131.0950  154.1382 C.ar    1  UNL1        0.0031
     42 C         142.0035  131.5447  155.5377 C.ar    1  UNL1        0.0372
     43 C         142.3463  132.9800  155.8073 C.ar    1  UNL1        0.1468
     44 O         142.6444  133.4297  157.2069 O.3     1  UNL1       -0.4045
     45 C         144.0286  133.2779  157.7647 C.3     1  UNL1        0.5753
     46 F         145.4128  133.1262  158.3225 F       1  UNL1       -0.1328
     47 F         144.3758  132.3390  156.6476 F       1  UNL1       -0.1328
     48 F         143.6814  134.2169  158.8817 F       1  UNL1       -0.1328
@<TRIPOS>BOND
     1    20    21    1
     2    21    22    1
     3    21    11    1
     4    11    12   ar
     5    12    13   ar
     6    13    23    1
     7    23    24    3
     8    13    14   ar
     9    14    15   ar
    10    15    16   ar
    11    16    17   ar
    12    17     5    1
    13     5     6   ar
    14     6     7   ar
    15     7     8   ar
    16     8     1    1
    17     1     2    2
    18     1     3   am
    19     3    25    1
    20    26    25    1
    21    26    27    1
    22    27    28    1
    23    28    32    1
    24    32    33   ar
    25    33    34   ar
    26    34    35   ar
    27    35    38    1
    28    38    39   ar
    29    39    40   ar
    30    40    41   ar
    31    41    42   ar
    32    42    43   ar
    33    43    44    1
    34    44    45    1
    35    45    46    1
    36    45    47    1
    37    45    48    1
    38    35    36   ar
    39    36    37   ar
    40    28    29   am
    41    29    30    2
    42    29    31    1
    43     8     9   ar
    44     9    10   ar
    45    17    18   ar
    46    18    19   ar
    47    19    11   ar
    48    19    15   ar
    49    10     5   ar
    50    31    26    1
    51    37    32   ar
    52    43    38   ar
    53     3     4    1
@<TRIPOS>MOLECULE
*****
 48 53 0 0 0
SMALL
GASTEIGER

@<TRIPOS>ATOM
      1 C         141.5855  140.2978  156.8666 C.2     1  UNL1        0.2459
      2 O         142.8072  141.0863  157.2349 O.2     1  UNL1       -0.2701
      3 N         140.2617  140.9886  156.7239 N.am    1  UNL1       -0.2975
      4 H         139.4599  140.4710  156.4821 H       1  UNL1        0.1499
      5 C         141.8919  135.8595  156.1897 C.ar    1  UNL1        0.0536
      6 C         140.9116  136.6731  155.3978 C.ar    1  UNL1        0.0048
      7 C         140.8095  138.1525  155.6234 C.ar    1  UNL1        0.0047
      8 C         141.6877  138.8184  156.6410 C.ar    1  UNL1        0.0534
      9 C         142.6679  138.0049  157.4330 C.ar    1  UNL1        0.0047
     10 C         142.7700  136.5254  157.2073 C.ar    1  UNL1        0.0048
     11 C         143.2244  130.7185  156.5484 C.ar    1  UNL1        0.0143
     12 C         142.8205  129.4892  155.7897 C.ar    1  UNL1        0.0091
     13 C         141.8359  129.5930  154.6630 C.ar    1  UNL1        0.0698
     14 C         141.2550  130.9262  154.2949 C.ar    1  UNL1        0.0326
     15 C         141.6589  132.1555  155.0537 C.ar    1  UNL1        0.1192
     16 N         141.2574  133.5945  154.9200 N.ar    1  UNL1       -0.2082
     17 C         141.9940  134.3801  155.9641 C.ar    1  UNL1        0.2296
     18 O         142.8507  133.4266  156.7431 O.2     1  UNL1       -0.4349
     19 C         142.6436  132.0516  156.1804 C.ar    1  UNL1        0.1607
     20 C         144.1933  129.4162  158.5770 C.3     1  UNL1        0.0048
     21 C         144.2092  130.6147  157.6752 C.3     1  UNL1        0.0254
     22 C         145.2098  131.7094  157.9000 C.3     1  UNL1        0.0048
     23 C         141.4319  128.3637  153.9042 C.1     1  UNL1        0.1005
     24 N         141.0280  127.1344  153.1455 N.1     1  UNL1       -0.1908
     25 C         140.1596  142.4680  156.9495 C.3     1  UNL1        0.1355
     26 C         140.0902  143.0107  158.3462 C.3     1  UNL1        0.2101
     27 C         140.1579  142.2049  159.6095 C.3     1  UNL1        0.1483
     28 N         140.0504  143.1506  160.7688 N.am    1  UNL1       -0.2059
     29 C         139.9162  144.5410  160.2220 C.2     1  UNL1        0.4098
     30 O         139.7812  145.7972  161.0305 O.2     1  UNL1       -0.2258
     31 O         139.9408  144.4544  158.7246 O.3     1  UNL1       -0.4345
     32 C         140.0732  142.7724  162.2202 C.ar    1  UNL1        0.1400
     33 C         141.2552  142.0432  162.7868 C.ar    1  UNL1        0.0348
     34 C         141.2779  141.6650  164.2382 C.ar    1  UNL1        0.0045
     35 C         140.1186  142.0160  165.1230 C.ar    1  UNL1        0.0222
     36 C         138.9366  142.7453  164.5562 C.ar    1  UNL1        0.1004
     37 N         138.9139  143.1234  163.1049 N.ar    1  UNL1       -0.2287
     38 C         140.1413  141.6379  166.5742 C.ar    1  UNL1        0.0358
     39 C         141.0405  142.3697  167.5260 C.ar    1  UNL1        0.0031
     40 C         141.0632  141.9915  168.9774 C.ar    1  UNL1        0.0002
     41 C         140.1867  140.8815  169.4770 C.ar    1  UNL1        0.0031
     42 C         139.2875  140.1497  168.5253 C.ar    1  UNL1        0.0372
     43 C         139.2648  140.5279  167.0739 C.ar    1  UNL1        0.1468
     44 O         138.3656  139.7961  166.1221 O.3     1  UNL1       -0.4045
     45 C         138.5356  138.3202  165.9142 C.3     1  UNL1        0.5753
     46 F         138.7056  136.8445  165.7063 F       1  UNL1       -0.1328
     47 F         139.6567  138.5848  164.9534 F       1  UNL1       -0.1328
     48 F         137.4146  138.0558  166.8750 F       1  UNL1       -0.1328
@<TRIPOS>BOND
     1    20    21    1
     2    21    22    1
     3    21    11    1
     4    11    12   ar
     5    12    13   ar
     6    13    23    1
     7    23    24    3
     8    13    14   ar
     9    14    15   ar
    10    15    16   ar
    11    16    17   ar
    12    17     5    1
    13     5     6   ar
    14     6     7   ar
    15     7     8   ar
    16     8     1    1
    17     1     2    2
    18     1     3   am
    19     3    25    1
    20    26    25    1
    21    26    27    1
    22    27    28    1
    23    28    32    1
    24    32    33   ar
    25    33    34   ar
    26    34    35   ar
    27    35    38    1
    28    38    39   ar
    29    39    40   ar
    30    40    41   ar
    31    41    42   ar
    32    42    43   ar
    33    43    44    1
    34    44    45    1
    35    45    46    1
    36    45    47    1
    37    45    48    1
    38    35    36   ar
    39    36    37   ar
    40    28    29   am
    41    29    30    2
    42    29    31    1
    43     8     9   ar
    44     9    10   ar
    45    17    18   ar
    46    18    19   ar
    47    19    11   ar
    48    19    15   ar
    49    10     5   ar
    50    31    26    1
    51    37    32   ar
    52    43    38   ar
    53     3     4    1
@<TRIPOS>MOLECULE
*****
 48 53 0 0 0
SMALL
GASTEIGER

@<TRIPOS>ATOM
      1 C         141.2864  139.8004  156.5721 C.2     1  UNL1        0.2459
      2 O         142.3596  140.8051  156.2744 O.2     1  UNL1       -0.2701
      3 N         139.9199  140.2622  156.9835 N.am    1  UNL1       -0.2975
      4 H         139.2155  139.6027  157.1789 H       1  UNL1        0.1499
      5 C         142.1667  135.4005  156.2312 C.ar    1  UNL1        0.0536
      6 C         142.9653  136.2545  157.1708 C.ar    1  UNL1        0.0048
      7 C         142.6718  137.7211  157.2844 C.ar    1  UNL1        0.0047
      8 C         141.5798  138.3338  156.4584 C.ar    1  UNL1        0.0534
      9 C         140.7813  137.4798  155.5188 C.ar    1  UNL1        0.0047
     10 C         141.0748  136.0131  155.4052 C.ar    1  UNL1        0.0048
     11 C         141.8019  130.1791  155.2625 C.ar    1  UNL1        0.0143
     12 C         142.7379  129.0228  155.4549 C.ar    1  UNL1        0.0091
     13 C         144.1016  129.2506  156.0365 C.ar    1  UNL1        0.0698
     14 C         144.5295  130.6346  156.4257 C.ar    1  UNL1        0.0326
     15 C         143.5935  131.7909  156.2334 C.ar    1  UNL1        0.1192
     16 N         143.7359  133.2561  156.5212 N.ar    1  UNL1       -0.2082
     17 C         142.4602  133.9339  156.1175 C.ar    1  UNL1        0.2296
     18 O         141.5293  132.8876  155.5802 O.2     1  UNL1       -0.4349
     19 C         142.2297  131.5631  155.6518 C.ar    1  UNL1        0.1607
     20 C         139.5472  128.8883  155.2520 C.3     1  UNL1        0.0048
     21 C         140.4382  129.9513  154.6809 C.3     1  UNL1        0.0254
     22 C         139.9653  130.7867  153.5282 C.3     1  UNL1        0.0048
     23 C         145.0377  128.0942  156.2288 C.1     1  UNL1        0.1005
     24 N         145.9736  126.9380  156.4212 N.1     1  UNL1       -0.1908
     25 C         139.6264  141.7288  157.0971 C.3     1  UNL1        0.1355
     26 C         139.6791  142.4027  158.4362 C.3     1  UNL1        0.2101
     27 C         139.7323  141.7145  159.7680 C.3     1  UNL1        0.1483
     28 N         139.7740  142.7695  160.8335 N.am    1  UNL1       -0.2059
     29 C         139.7465  144.1097  160.1602 C.2     1  UNL1        0.4098
     30 O         139.7730  145.4425  160.8478 O.2     1  UNL1       -0.2258
     31 O         139.6879  143.8828  158.6786 O.3     1  UNL1       -0.4345
     32 C         139.8327  142.5269  162.3126 C.ar    1  UNL1        0.1400
     33 C         141.1428  142.2047  162.9683 C.ar    1  UNL1        0.0348
     34 C         141.2015  141.9621  164.4474 C.ar    1  UNL1        0.0045
     35 C         139.9503  142.0418  165.2708 C.ar    1  UNL1        0.0222
     36 C         138.6403  142.3640  164.6150 C.ar    1  UNL1        0.1004
     37 N         138.5815  142.6065  163.1360 N.ar    1  UNL1       -0.2287
     38 C         140.0091  141.7992  166.7498 C.ar    1  UNL1        0.0358
     39 C         140.4720  142.8890  167.6707 C.ar    1  UNL1        0.0031
     40 C         140.5308  142.6464  169.1498 C.ar    1  UNL1        0.0002
     41 C         140.1266  141.3140  169.7080 C.ar    1  UNL1        0.0031
     42 C         139.6637  140.2243  168.7871 C.ar    1  UNL1        0.0372
     43 C         139.6049  140.4669  167.3080 C.ar    1  UNL1        0.1468
     44 O         139.1420  139.3771  166.3870 O.3     1  UNL1       -0.4045
     45 C         140.1151  138.7207  165.4530 C.3     1  UNL1        0.5753
     46 F         141.0881  138.0642  164.5190 F       1  UNL1       -0.1328
     47 F         141.2241  138.9735  166.4308 F       1  UNL1       -0.1328
     48 F         139.0060  138.4679  164.4753 F       1  UNL1       -0.1328
@<TRIPOS>BOND
     1    20    21    1
     2    21    22    1
     3    21    11    1
     4    11    12   ar
     5    12    13   ar
     6    13    23    1
     7    23    24    3
     8    13    14   ar
     9    14    15   ar
    10    15    16   ar
    11    16    17   ar
    12    17     5    1
    13     5     6   ar
    14     6     7   ar
    15     7     8   ar
    16     8     1    1
    17     1     2    2
    18     1     3   am
    19     3    25    1
    20    26    25    1
    21    26    27    1
    22    27    28    1
    23    28    32    1
    24    32    33   ar
    25    33    34   ar
    26    34    35   ar
    27    35    38    1
    28    38    39   ar
    29    39    40   ar
    30    40    41   ar
    31    41    42   ar
    32    42    43   ar
    33    43    44    1
    34    44    45    1
    35    45    46    1
    36    45    47    1
    37    45    48    1
    38    35    36   ar
    39    36    37   ar
    40    28    29   am
    41    29    30    2
    42    29    31    1
    43     8     9   ar
    44     9    10   ar
    45    17    18   ar
    46    18    19   ar
    47    19    11   ar
    48    19    15   ar
    49    10     5   ar
    50    31    26    1
    51    37    32   ar
    52    43    38   ar
    53     3     4    1
@<TRIPOS>MOLECULE
*****
 48 53 0 0 0
SMALL
GASTEIGER

@<TRIPOS>ATOM
      1 C         143.0118  140.1085  157.7133 C.2     1  UNL1        0.2459
      2 O         144.3918  140.6688  157.8912 O.2     1  UNL1       -0.2701
      3 N         141.8138  140.9906  157.9040 N.am    1  UNL1       -0.2975
      4 H         140.9080  140.6228  157.7872 H       1  UNL1        0.1499
      5 C         142.4662  135.7807  156.6071 C.ar    1  UNL1        0.0536
      6 C         142.4482  136.8354  155.5407 C.ar    1  UNL1        0.0048
      7 C         142.6301  138.2780  155.9095 C.ar    1  UNL1        0.0047
      8 C         142.8300  138.6659  157.3446 C.ar    1  UNL1        0.0534
      9 C         142.8479  137.6112  158.4110 C.ar    1  UNL1        0.0047
     10 C         142.6661  136.1686  158.0422 C.ar    1  UNL1        0.0048
     11 C         142.7646  130.4679  156.4685 C.ar    1  UNL1        0.0143
     12 C         142.1483  129.4192  155.5909 C.ar    1  UNL1        0.0091
     13 C         141.2307  129.8203  154.4742 C.ar    1  UNL1        0.0698
     14 C         140.9293  131.2701  154.2351 C.ar    1  UNL1        0.0326
     15 C         141.5457  132.3189  155.1127 C.ar    1  UNL1        0.1192
     16 N         141.4350  133.8148  155.1182 N.ar    1  UNL1       -0.2082
     17 C         142.2843  134.3382  156.2384 C.ar    1  UNL1        0.2296
     18 O         142.9198  133.1658  156.9252 O.2     1  UNL1       -0.4349
     19 C         142.4633  131.9178  156.2294 C.ar    1  UNL1        0.1607
     20 C         143.4469  128.7833  158.3250 C.3     1  UNL1        0.0048
     21 C         143.6822  130.0668  157.5852 C.3     1  UNL1        0.0254
     22 C         144.8352  130.9493  157.9622 C.3     1  UNL1        0.0048
     23 C         140.6144  128.7714  153.5965 C.1     1  UNL1        0.1005
     24 N         139.9980  127.7227  152.7188 N.1     1  UNL1       -0.1908
     25 C         141.9956  142.4332  158.2727 C.3     1  UNL1        0.1355
     26 C         142.3323  142.8096  159.6851 C.3     1  UNL1        0.2101
     27 C         141.6362  142.3163  160.9188 C.3     1  UNL1        0.1483
     28 N         142.2979  142.9472  162.1080 N.am    1  UNL1       -0.2059
     29 C         143.4030  143.8305  161.6092 C.2     1  UNL1        0.4098
     30 O         144.3248  144.6542  162.4587 O.2     1  UNL1       -0.2258
     31 O         143.4242  143.7454  160.1117 O.3     1  UNL1       -0.4345
     32 C         141.9207  142.7326  163.5438 C.ar    1  UNL1        0.1400
     33 C         142.9894  142.5810  164.5854 C.ar    1  UNL1        0.0348
     34 C         142.6123  142.3663  166.0212 C.ar    1  UNL1        0.0045
     35 C         141.1664  142.3034  166.4156 C.ar    1  UNL1        0.0222
     36 C         140.0978  142.4551  165.3740 C.ar    1  UNL1        0.1004
     37 N         140.4749  142.6697  163.9382 N.ar    1  UNL1       -0.2287
     38 C         140.7893  142.0888  167.8514 C.ar    1  UNL1        0.0358
     39 C         140.5516  143.2671  168.7486 C.ar    1  UNL1        0.0031
     40 C         140.1744  143.0525  170.1844 C.ar    1  UNL1        0.0002
     41 C         140.0351  141.6595  170.7232 C.ar    1  UNL1        0.0031
     42 C         140.2728  140.4812  169.8260 C.ar    1  UNL1        0.0372
     43 C         140.6500  140.6958  168.3901 C.ar    1  UNL1        0.1468
     44 O         140.8877  139.5175  167.4929 O.3     1  UNL1       -0.4045
     45 C         142.2856  139.1513  167.0903 C.3     1  UNL1        0.5753
     46 F         143.6834  138.7852  166.6876 F       1  UNL1       -0.1328
     47 F         142.7215  139.2403  168.5227 F       1  UNL1       -0.1328
     48 F         141.8497  139.0623  165.6578 F       1  UNL1       -0.1328
@<TRIPOS>BOND
     1    20    21    1
     2    21    22    1
     3    21    11    1
     4    11    12   ar
     5    12    13   ar
     6    13    23    1
     7    23    24    3
     8    13    14   ar
     9    14    15   ar
    10    15    16   ar
    11    16    17   ar
    12    17     5    1
    13     5     6   ar
    14     6     7   ar
    15     7     8   ar
    16     8     1    1
    17     1     2    2
    18     1     3   am
    19     3    25    1
    20    26    25    1
    21    26    27    1
    22    27    28    1
    23    28    32    1
    24    32    33   ar
    25    33    34   ar
    26    34    35   ar
    27    35    38    1
    28    38    39   ar
    29    39    40   ar
    30    40    41   ar
    31    41    42   ar
    32    42    43   ar
    33    43    44    1
    34    44    45    1
    35    45    46    1
    36    45    47    1
    37    45    48    1
    38    35    36   ar
    39    36    37   ar
    40    28    29   am
    41    29    30    2
    42    29    31    1
    43     8     9   ar
    44     9    10   ar
    45    17    18   ar
    46    18    19   ar
    47    19    11   ar
    48    19    15   ar
    49    10     5   ar
    50    31    26    1
    51    37    32   ar
    52    43    38   ar
    53     3     4    1
@<TRIPOS>MOLECULE
*****
 48 53 0 0 0
SMALL
GASTEIGER

@<TRIPOS>ATOM
      1 C         142.1043  139.6202  159.4187 C.2     1  UNL1        0.2459
      2 O         143.1029  140.6066  158.8897 O.2     1  UNL1       -0.2701
      3 N         141.5790  138.5337  158.5279 N.am    1  UNL1       -0.2975
      4 H         140.9236  137.8863  158.8752 H       1  UNL1        0.1499
      5 C         140.6844  139.9210  163.6782 C.ar    1  UNL1        0.0536
      6 C         141.2029  141.1390  162.9727 C.ar    1  UNL1        0.0048
      7 C         141.6762  141.0386  161.5529 C.ar    1  UNL1        0.0047
      8 C         141.6310  139.7205  160.8385 C.ar    1  UNL1        0.0534
      9 C         141.1125  138.5025  161.5440 C.ar    1  UNL1        0.0047
     10 C         140.6392  138.6028  162.9638 C.ar    1  UNL1        0.0048
     11 C         140.0737  141.3498  168.7694 C.ar    1  UNL1        0.0143
     12 C         139.1634  140.8928  169.8706 C.ar    1  UNL1        0.0091
     13 C         138.1628  139.8054  169.6138 C.ar    1  UNL1        0.0698
     14 C         138.0722  139.1748  168.2557 C.ar    1  UNL1        0.0326
     15 C         138.9825  139.6318  167.1545 C.ar    1  UNL1        0.1192
     16 N         139.1233  139.2004  165.7248 N.ar    1  UNL1       -0.2082
     17 C         140.2111  140.0212  165.0981 C.ar    1  UNL1        0.2296
     18 O         140.7425  140.9600  166.1404 O.2     1  UNL1       -0.4349
     19 C         139.9832  140.7192  167.4114 C.ar    1  UNL1        0.1607
     20 C         142.5083  142.2460  168.6295 C.3     1  UNL1        0.0048
     21 C         141.0744  142.4373  169.0262 C.3     1  UNL1        0.0254
     22 C         140.6412  143.7161  169.6797 C.3     1  UNL1        0.0048
     23 C         137.2525  139.3485  170.7151 C.1     1  UNL1        0.1005
     24 N         136.3422  138.8916  171.8163 N.1     1  UNL1       -0.1908
     25 C         142.0523  138.4334  157.1081 C.3     1  UNL1        0.1355
     26 C         142.0713  137.1028  156.4160 C.3     1  UNL1        0.2101
     27 C         142.7965  135.8759  156.8839 C.3     1  UNL1        0.1483
     28 N         142.5418  134.7803  155.8916 N.am    1  UNL1       -0.2059
     29 C         141.6593  135.3300  154.8103 C.2     1  UNL1        0.4098
     30 O         141.1560  134.5766  153.6149 O.2     1  UNL1       -0.2258
     31 O         141.3686  136.7654  155.1345 O.3     1  UNL1       -0.4345
     32 C         143.0759  133.3806  155.9672 C.ar    1  UNL1        0.1400
     33 C         144.4859  133.1393  156.4185 C.ar    1  UNL1        0.0348
     34 C         145.0200  131.7396  156.4940 C.ar    1  UNL1        0.0045
     35 C         144.1441  130.5813  156.1184 C.ar    1  UNL1        0.0222
     36 C         142.7341  130.8227  155.6671 C.ar    1  UNL1        0.1004
     37 N         142.2000  132.2223  155.5915 N.ar    1  UNL1       -0.2287
     38 C         144.6782  129.1817  156.1940 C.ar    1  UNL1        0.0358
     39 C         145.2993  128.5496  154.9838 C.ar    1  UNL1        0.0031
     40 C         145.8334  127.1499  155.0594 C.ar    1  UNL1        0.0002
     41 C         145.7464  126.3824  156.3452 C.ar    1  UNL1        0.0031
     42 C         145.1252  127.0145  157.5554 C.ar    1  UNL1        0.0372
     43 C         144.5911  128.4142  157.4798 C.ar    1  UNL1        0.1468
     44 O         143.9700  129.0463  158.6900 O.3     1  UNL1       -0.4045
     45 C         143.1071  128.2279  159.6042 C.3     1  UNL1        0.5753
     46 F         142.2442  127.4095  160.5183 F       1  UNL1       -0.1328
     47 F         144.0847  128.4446  160.7209 F       1  UNL1       -0.1328
     48 F         142.1294  128.0113  158.4874 F       1  UNL1       -0.1328
@<TRIPOS>BOND
     1    20    21    1
     2    21    22    1
     3    21    11    1
     4    11    12   ar
     5    12    13   ar
     6    13    23    1
     7    23    24    3
     8    13    14   ar
     9    14    15   ar
    10    15    16   ar
    11    16    17   ar
    12    17     5    1
    13     5     6   ar
    14     6     7   ar
    15     7     8   ar
    16     8     1    1
    17     1     2    2
    18     1     3   am
    19     3    25    1
    20    26    25    1
    21    26    27    1
    22    27    28    1
    23    28    32    1
    24    32    33   ar
    25    33    34   ar
    26    34    35   ar
    27    35    38    1
    28    38    39   ar
    29    39    40   ar
    30    40    41   ar
    31    41    42   ar
    32    42    43   ar
    33    43    44    1
    34    44    45    1
    35    45    46    1
    36    45    47    1
    37    45    48    1
    38    35    36   ar
    39    36    37   ar
    40    28    29   am
    41    29    30    2
    42    29    31    1
    43     8     9   ar
    44     9    10   ar
    45    17    18   ar
    46    18    19   ar
    47    19    11   ar
    48    19    15   ar
    49    10     5   ar
    50    31    26    1
    51    37    32   ar
    52    43    38   ar
    53     3     4    1
@<TRIPOS>MOLECULE
*****
 48 53 0 0 0
SMALL
GASTEIGER

@<TRIPOS>ATOM
      1 C         139.1993  139.4640  155.9108 C.2     1  UNL1        0.2459
      2 O         140.1222  139.6713  154.7467 O.2     1  UNL1       -0.2701
      3 N         139.7364  138.9406  157.2099 N.am    1  UNL1       -0.2975
      4 H         139.1307  138.8046  157.9739 H       1  UNL1        0.1499
      5 C         134.8190  140.4127  155.5061 C.ar    1  UNL1        0.0536
      6 C         135.4709  139.4574  154.5509 C.ar    1  UNL1        0.0048
      7 C         136.9310  139.1412  154.6858 C.ar    1  UNL1        0.0047
      8 C         137.7392  139.7803  155.7760 C.ar    1  UNL1        0.0534
      9 C         137.0874  140.7356  156.7312 C.ar    1  UNL1        0.0047
     10 C         135.6273  141.0517  156.5962 C.ar    1  UNL1        0.0048
     11 C         129.5263  140.4429  156.0724 C.ar    1  UNL1        0.0143
     12 C         128.4226  141.2400  155.4428 C.ar    1  UNL1        0.0091
     13 C         128.7439  142.2864  154.4173 C.ar    1  UNL1        0.0698
     14 C         130.1691  142.5358  154.0213 C.ar    1  UNL1        0.0326
     15 C         131.2729  141.7387  154.6509 C.ar    1  UNL1        0.1192
     16 N         132.7608  141.7614  154.4622 N.ar    1  UNL1       -0.2082
     17 C         133.3590  140.7289  155.3712 C.ar    1  UNL1        0.2296
     18 O         132.2408  140.0682  156.1216 O.2     1  UNL1       -0.4349
     19 C         130.9515  140.6923  155.6764 C.ar    1  UNL1        0.1607
     20 C         129.6299  137.9750  156.8776 C.3     1  UNL1        0.0048
     21 C         129.2049  139.3965  157.0979 C.3     1  UNL1        0.0254
     22 C         128.4586  139.7717  158.3439 C.3     1  UNL1        0.0048
     23 C         127.6401  143.0835  153.7877 C.1     1  UNL1        0.1005
     24 N         126.5364  143.8806  153.1581 N.1     1  UNL1       -0.1908
     25 C         141.1965  138.6243  157.3448 C.3     1  UNL1        0.1355
     26 C         141.8136  138.4966  158.7060 C.3     1  UNL1        0.2101
     27 C         141.2039  138.9563  159.9970 C.3     1  UNL1        0.1483
     28 N         142.1622  138.6306  161.1041 N.am    1  UNL1       -0.2059
     29 C         143.3642  137.9694  160.4972 C.2     1  UNL1        0.4098
     30 O         144.5698  137.4775  161.2417 O.2     1  UNL1       -0.2258
     31 O         143.1486  137.8867  159.0150 O.3     1  UNL1       -0.4345
     32 C         141.9549  138.9158  162.5621 C.ar    1  UNL1        0.1400
     33 C         141.7105  140.3218  163.0239 C.ar    1  UNL1        0.0348
     34 C         141.5033  140.6070  164.4819 C.ar    1  UNL1        0.0045
     35 C         141.5404  139.4862  165.4781 C.ar    1  UNL1        0.0222
     36 C         141.7849  138.0802  165.0161 C.ar    1  UNL1        0.1004
     37 N         141.9921  137.7950  163.5582 N.ar    1  UNL1       -0.2287
     38 C         141.3332  139.7714  166.9359 C.ar    1  UNL1        0.0358
     39 C         142.5161  139.9635  167.8381 C.ar    1  UNL1        0.0031
     40 C         142.3088  140.2488  169.2961 C.ar    1  UNL1        0.0002
     41 C         140.9187  140.3419  169.8519 C.ar    1  UNL1        0.0031
     42 C         139.7359  140.1498  168.9498 C.ar    1  UNL1        0.0372
     43 C         139.9431  139.8645  167.4918 C.ar    1  UNL1        0.1468
     44 O         138.7603  139.6724  166.5896 O.3     1  UNL1       -0.4045
     45 C         138.0052  138.3763  166.6085 C.3     1  UNL1        0.5753
     46 F         137.2503  137.0803  166.6273 F       1  UNL1       -0.1328
     47 F         137.4026  138.7467  167.9311 F       1  UNL1       -0.1328
     48 F         138.6079  138.0060  165.2857 F       1  UNL1       -0.1328
@<TRIPOS>BOND
     1    20    21    1
     2    21    22    1
     3    21    11    1
     4    11    12   ar
     5    12    13   ar
     6    13    23    1
     7    23    24    3
     8    13    14   ar
     9    14    15   ar
    10    15    16   ar
    11    16    17   ar
    12    17     5    1
    13     5     6   ar
    14     6     7   ar
    15     7     8   ar
    16     8     1    1
    17     1     2    2
    18     1     3   am
    19     3    25    1
    20    26    25    1
    21    26    27    1
    22    27    28    1
    23    28    32    1
    24    32    33   ar
    25    33    34   ar
    26    34    35   ar
    27    35    38    1
    28    38    39   ar
    29    39    40   ar
    30    40    41   ar
    31    41    42   ar
    32    42    43   ar
    33    43    44    1
    34    44    45    1
    35    45    46    1
    36    45    47    1
    37    45    48    1
    38    35    36   ar
    39    36    37   ar
    40    28    29   am
    41    29    30    2
    42    29    31    1
    43     8     9   ar
    44     9    10   ar
    45    17    18   ar
    46    18    19   ar
    47    19    11   ar
    48    19    15   ar
    49    10     5   ar
    50    31    26    1
    51    37    32   ar
    52    43    38   ar
    53     3     4    1
