@<TRIPOS>MOLECULE
*****
 22 24 0 0 0
SMALL
GASTEIGER

@<TRIPOS>ATOM
      1 C         138.7447  142.9226  164.1661 C.3     1  UNL1        0.1038
      2 C         138.6236  144.2490  163.4761 C.3     1  UNL1        0.2106
      3 O         139.8396  145.1039  163.2754 O.3     1  UNL1       -0.4755
      4 C         141.1770  144.6324  163.7647 C.ar    1  UNL1        0.1379
      5 C         142.3930  145.4872  163.5640 C.ar    1  UNL1        0.0367
      6 C         143.7303  145.0157  164.0533 C.ar    1  UNL1        0.0031
      7 C         143.8514  143.6893  164.7432 C.ar    1  UNL1       -0.0000
      8 C         142.6354  142.8345  164.9439 C.ar    1  UNL1        0.0022
      9 C         141.2981  143.3060  164.4547 C.ar    1  UNL1        0.0513
     10 C         140.0819  142.4511  164.6554 C.3     1  UNL1        0.1959
     11 C         137.5285  142.0678  164.3668 C.3     1  UNL1        0.0763
     12 C         137.6977  140.7869  162.1128 C.3     1  UNL1        0.0859
     13 N         136.8649  141.4191  163.1883 N.3     1  UNL1       -0.2961
     14 H         136.2572  140.6882  163.5580 H       1  UNL1        0.1233
     15 O         140.2031  141.1247  165.3453 O.3     1  UNL1       -0.4748
     16 C         139.9456  141.0198  166.8194 C.ar    1  UNL1        0.1348
     17 C         140.5424  142.0258  167.7585 C.ar    1  UNL1        0.0366
     18 C         140.2848  141.9208  169.2324 C.ar    1  UNL1        0.0031
     19 C         139.4306  140.8099  169.7673 C.ar    1  UNL1       -0.0001
     20 C         138.8338  139.8040  168.8283 C.ar    1  UNL1       -0.0013
     21 C         139.0913  139.9089  167.3543 C.ar    1  UNL1        0.0121
     22 C         138.4946  138.9029  166.4151 C.3     1  UNL1        0.0342
@<TRIPOS>BOND
     1    12    13    1
     2    13    11    1
     3     1    11    1
     4     1     2    1
     5     2     3    1
     6     3     4    1
     7     4     5   ar
     8     5     6   ar
     9     6     7   ar
    10     7     8   ar
    11     8     9   ar
    12     9    10    1
    13    10    15    1
    14    15    16    1
    15    16    17   ar
    16    17    18   ar
    17    18    19   ar
    18    19    20   ar
    19    20    21   ar
    20    21    22    1
    21    10     1    1
    22    21    16   ar
    23     9     4   ar
    24    13    14    1
@<TRIPOS>MOLECULE
*****
 22 24 0 0 0
SMALL
GASTEIGER

@<TRIPOS>ATOM
      1 C         138.7287  139.1255  165.5461 C.3     1  UNL1        0.1038
      2 C         137.9725  138.3948  166.6158 C.3     1  UNL1        0.2106
      3 O         138.0823  138.8348  168.0456 O.3     1  UNL1       -0.4755
      4 C         138.9483  140.0056  168.4057 C.ar    1  UNL1        0.1379
      5 C         139.0580  140.4456  169.8355 C.ar    1  UNL1        0.0367
      6 C         139.9240  141.6162  170.1955 C.ar    1  UNL1        0.0031
      7 C         140.6801  142.3469  169.1258 C.ar    1  UNL1       -0.0000
      8 C         140.5704  141.9068  167.6960 C.ar    1  UNL1        0.0022
      9 C         139.7044  140.7362  167.3360 C.ar    1  UNL1        0.0513
     10 C         139.5946  140.2961  165.9061 C.3     1  UNL1        0.1959
     11 C         138.6189  138.6854  164.1163 C.3     1  UNL1        0.0763
     12 C         140.8028  137.3554  163.6559 C.3     1  UNL1        0.0859
     13 N         139.8592  138.4663  163.3016 N.3     1  UNL1       -0.2961
     14 H         139.5558  138.3002  162.3421 H       1  UNL1        0.1233
     15 O         140.3508  141.0268  164.8364 O.3     1  UNL1       -0.4748
     16 C         139.8193  142.3195  164.2919 C.ar    1  UNL1        0.1348
     17 C         138.3907  142.4138  163.8443 C.ar    1  UNL1        0.0366
     18 C         137.8592  143.7065  163.2999 C.ar    1  UNL1        0.0031
     19 C         138.7563  144.9048  163.2030 C.ar    1  UNL1       -0.0001
     20 C         140.1848  144.8105  163.6505 C.ar    1  UNL1       -0.0013
     21 C         140.7163  143.5178  164.1950 C.ar    1  UNL1        0.0121
     22 C         142.1449  143.4234  164.6426 C.3     1  UNL1        0.0342
@<TRIPOS>BOND
     1    12    13    1
     2    13    11    1
     3     1    11    1
     4     1     2    1
     5     2     3    1
     6     3     4    1
     7     4     5   ar
     8     5     6   ar
     9     6     7   ar
    10     7     8   ar
    11     8     9   ar
    12     9    10    1
    13    10    15    1
    14    15    16    1
    15    16    17   ar
    16    17    18   ar
    17    18    19   ar
    18    19    20   ar
    19    20    21   ar
    20    21    22    1
    21    10     1    1
    22    21    16   ar
    23     9     4   ar
    24    13    14    1
@<TRIPOS>MOLECULE
*****
 22 24 0 0 0
SMALL
GASTEIGER

@<TRIPOS>ATOM
      1 C         138.7949  142.9637  164.1683 C.3     1  UNL1        0.1038
      2 C         138.8258  144.1780  163.2883 C.3     1  UNL1        0.2106
      3 O         140.1097  144.9275  163.0892 O.3     1  UNL1       -0.4755
      4 C         141.3629  144.4627  163.7701 C.ar    1  UNL1        0.1379
      5 C         142.6469  145.2121  163.5710 C.ar    1  UNL1        0.0367
      6 C         143.8999  144.7473  164.2519 C.ar    1  UNL1        0.0031
      7 C         143.8690  143.5329  165.1319 C.ar    1  UNL1       -0.0000
      8 C         142.5851  142.7834  165.3310 C.ar    1  UNL1        0.0022
      9 C         141.3320  143.2483  164.6501 C.ar    1  UNL1        0.0513
     10 C         140.0480  142.4988  164.8492 C.3     1  UNL1        0.1959
     11 C         137.5109  142.2142  164.3674 C.3     1  UNL1        0.0763
     12 C         137.7934  140.5971  162.3536 C.3     1  UNL1        0.0859
     13 N         136.9136  141.4351  163.2332 N.3     1  UNL1       -0.2961
     14 H         136.2203  140.8073  163.6401 H       1  UNL1        0.1233
     15 O         140.0171  141.2845  165.7292 O.3     1  UNL1       -0.4748
     16 C         140.2190  139.9221  165.1347 C.ar    1  UNL1        0.1348
     17 C         141.4033  139.6564  164.2534 C.ar    1  UNL1        0.0366
     18 C         141.6052  138.2941  163.6590 C.ar    1  UNL1        0.0031
     19 C         140.6227  137.1975  163.9459 C.ar    1  UNL1       -0.0001
     20 C         139.4384  137.4633  164.8272 C.ar    1  UNL1       -0.0013
     21 C         139.2366  138.8255  165.4216 C.ar    1  UNL1        0.0121
     22 C         138.0522  139.0913  166.3030 C.3     1  UNL1        0.0342
@<TRIPOS>BOND
     1    12    13    1
     2    13    11    1
     3     1    11    1
     4     1     2    1
     5     2     3    1
     6     3     4    1
     7     4     5   ar
     8     5     6   ar
     9     6     7   ar
    10     7     8   ar
    11     8     9   ar
    12     9    10    1
    13    10    15    1
    14    15    16    1
    15    16    17   ar
    16    17    18   ar
    17    18    19   ar
    18    19    20   ar
    19    20    21   ar
    20    21    22    1
    21    10     1    1
    22    21    16   ar
    23     9     4   ar
    24    13    14    1
@<TRIPOS>MOLECULE
*****
 22 24 0 0 0
SMALL
GASTEIGER

@<TRIPOS>ATOM
      1 C         138.8292  139.3362  165.5785 C.3     1  UNL1        0.1038
      2 C         138.0210  138.6138  166.6153 C.3     1  UNL1        0.2106
      3 O         138.1458  138.9922  168.0614 O.3     1  UNL1       -0.4755
      4 C         139.0790  140.0929  168.4707 C.ar    1  UNL1        0.1379
      5 C         139.2039  140.4713  169.9168 C.ar    1  UNL1        0.0367
      6 C         140.1370  141.5720  170.3261 C.ar    1  UNL1        0.0031
      7 C         140.9453  142.2944  169.2894 C.ar    1  UNL1       -0.0000
      8 C         140.8204  141.9161  167.8433 C.ar    1  UNL1        0.0022
      9 C         139.8873  140.8153  167.4340 C.ar    1  UNL1        0.0513
     10 C         139.7624  140.4369  165.9878 C.3     1  UNL1        0.1959
     11 C         138.7043  138.9577  164.1324 C.3     1  UNL1        0.0763
     12 C         137.4863  140.9863  163.0595 C.3     1  UNL1        0.0859
     13 N         138.6378  140.0254  163.0808 N.3     1  UNL1       -0.2961
     14 H         139.4860  140.5842  163.1745 H       1  UNL1        0.1233
     15 O         140.5707  141.1593  164.9511 O.3     1  UNL1       -0.4748
     16 C         142.0075  140.7902  164.7290 C.ar    1  UNL1        0.1348
     17 C         142.3973  139.3495  164.5793 C.ar    1  UNL1        0.0366
     18 C         143.8341  138.9805  164.3573 C.ar    1  UNL1        0.0031
     19 C         144.8811  140.0521  164.2849 C.ar    1  UNL1       -0.0001
     20 C         144.4914  141.4928  164.4346 C.ar    1  UNL1       -0.0013
     21 C         143.0546  141.8618  164.6566 C.ar    1  UNL1        0.0121
     22 C         142.6647  143.3026  164.8063 C.3     1  UNL1        0.0342
@<TRIPOS>BOND
     1    12    13    1
     2    13    11    1
     3     1    11    1
     4     1     2    1
     5     2     3    1
     6     3     4    1
     7     4     5   ar
     8     5     6   ar
     9     6     7   ar
    10     7     8   ar
    11     8     9   ar
    12     9    10    1
    13    10    15    1
    14    15    16    1
    15    16    17   ar
    16    17    18   ar
    17    18    19   ar
    18    19    20   ar
    19    20    21   ar
    20    21    22    1
    21    10     1    1
    22    21    16   ar
    23     9     4   ar
    24    13    14    1
@<TRIPOS>MOLECULE
*****
 22 24 0 0 0
SMALL
GASTEIGER

@<TRIPOS>ATOM
      1 C         141.0725  144.1229  164.3556 C.3     1  UNL1        0.1038
      2 C         142.1669  144.9760  163.7860 C.3     1  UNL1        0.2106
      3 O         143.5294  144.3928  163.5552 O.3     1  UNL1       -0.4755
      4 C         143.7976  142.9564  163.8940 C.ar    1  UNL1        0.1379
      5 C         145.1602  142.3732  163.6632 C.ar    1  UNL1        0.0367
      6 C         145.4283  140.9368  164.0021 C.ar    1  UNL1        0.0031
      7 C         144.3340  140.0836  164.5717 C.ar    1  UNL1       -0.0000
      8 C         142.9714  140.6668  164.8024 C.ar    1  UNL1        0.0022
      9 C         142.7033  142.1032  164.4636 C.ar    1  UNL1        0.0513
     10 C         141.3407  142.6865  164.6944 C.3     1  UNL1        0.1959
     11 C         139.7099  144.7062  164.5863 C.3     1  UNL1        0.0763
     12 C         137.7978  144.0082  162.9718 C.3     1  UNL1        0.0859
     13 N         138.4856  143.8884  164.2994 N.3     1  UNL1       -0.2961
     14 H         138.7537  142.9099  164.4049 H       1  UNL1        0.1233
     15 O         140.2463  141.8333  165.2640 O.3     1  UNL1       -0.4748
     16 C         140.1247  141.6623  166.7493 C.ar    1  UNL1        0.1348
     17 C         140.5647  142.7622  167.6694 C.ar    1  UNL1        0.0366
     18 C         140.4431  142.5912  169.1546 C.ar    1  UNL1        0.0031
     19 C         139.8814  141.3203  169.7197 C.ar    1  UNL1       -0.0001
     20 C         139.4414  140.2204  168.7996 C.ar    1  UNL1       -0.0013
     21 C         139.5630  140.3914  167.3144 C.ar    1  UNL1        0.0121
     22 C         139.1230  139.2915  166.3942 C.3     1  UNL1        0.0342
@<TRIPOS>BOND
     1    12    13    1
     2    13    11    1
     3     1    11    1
     4     1     2    1
     5     2     3    1
     6     3     4    1
     7     4     5   ar
     8     5     6   ar
     9     6     7   ar
    10     7     8   ar
    11     8     9   ar
    12     9    10    1
    13    10    15    1
    14    15    16    1
    15    16    17   ar
    16    17    18   ar
    17    18    19   ar
    18    19    20   ar
    19    20    21   ar
    20    21    22    1
    21    10     1    1
    22    21    16   ar
    23     9     4   ar
    24    13    14    1
@<TRIPOS>MOLECULE
*****
 22 24 0 0 0
SMALL
GASTEIGER

@<TRIPOS>ATOM
      1 C         142.7534  144.3346  163.7670 C.3     1  UNL1        0.1038
      2 C         144.0276  144.3664  162.9761 C.3     1  UNL1        0.2106
      3 O         144.9196  143.1610  162.9423 O.3     1  UNL1       -0.4755
      4 C         144.5374  141.9237  163.6993 C.ar    1  UNL1        0.1379
      5 C         145.4295  140.7183  163.6655 C.ar    1  UNL1        0.0367
      6 C         145.0473  139.4810  164.4225 C.ar    1  UNL1        0.0031
      7 C         143.7731  139.4492  165.2134 C.ar    1  UNL1       -0.0000
      8 C         142.8811  140.6546  165.2472 C.ar    1  UNL1        0.0022
      9 C         143.2633  141.8919  164.4902 C.ar    1  UNL1        0.0513
     10 C         142.3712  143.0974  164.5240 C.3     1  UNL1        0.1959
     11 C         141.8613  145.5401  163.8008 C.3     1  UNL1        0.0763
     12 C         140.5404  144.7734  161.6991 C.3     1  UNL1        0.0859
     13 N         140.9964  145.8665  162.6195 N.3     1  UNL1       -0.2961
     14 H         140.1557  146.3138  162.9847 H       1  UNL1        0.1233
     15 O         141.0971  143.0656  165.3148 O.3     1  UNL1       -0.4748
     16 C         139.8125  142.6651  164.6517 C.ar    1  UNL1        0.1348
     17 C         139.7185  141.3541  163.9290 C.ar    1  UNL1        0.0366
     18 C         138.4340  140.9537  163.2659 C.ar    1  UNL1        0.0031
     19 C         137.2436  141.8643  163.3255 C.ar    1  UNL1       -0.0001
     20 C         137.3376  143.1753  164.0482 C.ar    1  UNL1       -0.0013
     21 C         138.6220  143.5757  164.7113 C.ar    1  UNL1        0.0121
     22 C         138.7161  144.8868  165.4341 C.3     1  UNL1        0.0342
@<TRIPOS>BOND
     1    12    13    1
     2    13    11    1
     3     1    11    1
     4     1     2    1
     5     2     3    1
     6     3     4    1
     7     4     5   ar
     8     5     6   ar
     9     6     7   ar
    10     7     8   ar
    11     8     9   ar
    12     9    10    1
    13    10    15    1
    14    15    16    1
    15    16    17   ar
    16    17    18   ar
    17    18    19   ar
    18    19    20   ar
    19    20    21   ar
    20    21    22    1
    21    10     1    1
    22    21    16   ar
    23     9     4   ar
    24    13    14    1
@<TRIPOS>MOLECULE
*****
 22 24 0 0 0
SMALL
GASTEIGER

@<TRIPOS>ATOM
      1 C         141.7182  139.6492  165.1340 C.3     1  UNL1        0.1038
      2 C         143.0151  139.2701  165.7853 C.3     1  UNL1        0.2106
      3 O         143.1214  139.2361  167.2811 O.3     1  UNL1       -0.4755
      4 C         141.9307  139.5812  168.1257 C.ar    1  UNL1        0.1379
      5 C         142.0369  139.5472  169.6215 C.ar    1  UNL1        0.0367
      6 C         140.8463  139.8922  170.4660 C.ar    1  UNL1        0.0031
      7 C         139.5493  140.2714  169.8146 C.ar    1  UNL1       -0.0000
      8 C         139.4431  140.3054  168.3188 C.ar    1  UNL1        0.0022
      9 C         140.6338  139.9603  167.4743 C.ar    1  UNL1        0.0513
     10 C         140.5275  139.9943  165.9784 C.3     1  UNL1        0.1959
     11 C         141.6120  139.6832  163.6381 C.3     1  UNL1        0.0763
     12 C         140.3461  137.4760  163.1130 C.3     1  UNL1        0.0859
     13 N         140.4931  138.9597  162.9490 N.3     1  UNL1       -0.2961
     14 H         139.6240  139.3799  163.2782 H       1  UNL1        0.1233
     15 O         139.2306  140.3734  165.3271 O.3     1  UNL1       -0.4748
     16 C         138.9848  141.7952  164.9168 C.ar    1  UNL1        0.1348
     17 C         139.6537  142.9155  165.6566 C.ar    1  UNL1        0.0366
     18 C         139.4079  144.3372  165.2464 C.ar    1  UNL1        0.0031
     19 C         138.4932  144.6385  164.0964 C.ar    1  UNL1       -0.0001
     20 C         137.8243  143.5181  163.3566 C.ar    1  UNL1       -0.0013
     21 C         138.0701  142.0965  163.7668 C.ar    1  UNL1        0.0121
     22 C         137.4012  140.9760  163.0271 C.3     1  UNL1        0.0342
@<TRIPOS>BOND
     1    12    13    1
     2    13    11    1
     3     1    11    1
     4     1     2    1
     5     2     3    1
     6     3     4    1
     7     4     5   ar
     8     5     6   ar
     9     6     7   ar
    10     7     8   ar
    11     8     9   ar
    12     9    10    1
    13    10    15    1
    14    15    16    1
    15    16    17   ar
    16    17    18   ar
    17    18    19   ar
    18    19    20   ar
    19    20    21   ar
    20    21    22    1
    21    10     1    1
    22    21    16   ar
    23     9     4   ar
    24    13    14    1
@<TRIPOS>MOLECULE
*****
 22 24 0 0 0
SMALL
GASTEIGER

@<TRIPOS>ATOM
      1 C         142.8387  143.5036  164.6085 C.3     1  UNL1        0.1038
      2 C         142.8215  144.7991  163.8526 C.3     1  UNL1        0.2106
      3 O         141.5329  145.3225  163.2909 O.3     1  UNL1       -0.4755
      4 C         140.2615  144.5505  163.4851 C.ar    1  UNL1        0.1379
      5 C         138.9730  145.0740  162.9234 C.ar    1  UNL1        0.0367
      6 C         137.7017  144.3019  163.1176 C.ar    1  UNL1        0.0031
      7 C         137.7190  143.0064  163.8735 C.ar    1  UNL1       -0.0000
      8 C         139.0075  142.4830  164.4352 C.ar    1  UNL1        0.0022
      9 C         140.2788  143.2550  164.2410 C.ar    1  UNL1        0.0513
     10 C         141.5674  142.7315  164.8027 C.3     1  UNL1        0.1959
     11 C         144.1274  142.9801  165.1702 C.3     1  UNL1        0.0763
     12 C         145.7105  141.6414  163.6045 C.3     1  UNL1        0.0859
     13 N         144.6768  141.6692  164.6910 N.3     1  UNL1       -0.2961
     14 H         145.0897  141.2088  165.5021 H       1  UNL1        0.1233
     15 O         141.5847  141.4360  165.5586 O.3     1  UNL1       -0.4748
     16 C         140.9616  141.3540  166.9206 C.ar    1  UNL1        0.1348
     17 C         141.2938  142.3827  167.9605 C.ar    1  UNL1        0.0366
     18 C         140.6707  142.3007  169.3224 C.ar    1  UNL1        0.0031
     19 C         139.7153  141.1900  169.6445 C.ar    1  UNL1       -0.0001
     20 C         139.3831  140.1613  168.6046 C.ar    1  UNL1       -0.0013
     21 C         140.0063  140.2433  167.2426 C.ar    1  UNL1        0.0121
     22 C         139.6741  139.2146  166.2026 C.3     1  UNL1        0.0342
@<TRIPOS>BOND
     1    12    13    1
     2    13    11    1
     3     1    11    1
     4     1     2    1
     5     2     3    1
     6     3     4    1
     7     4     5   ar
     8     5     6   ar
     9     6     7   ar
    10     7     8   ar
    11     8     9   ar
    12     9    10    1
    13    10    15    1
    14    15    16    1
    15    16    17   ar
    16    17    18   ar
    17    18    19   ar
    18    19    20   ar
    19    20    21   ar
    20    21    22    1
    21    10     1    1
    22    21    16   ar
    23     9     4   ar
    24    13    14    1
@<TRIPOS>MOLECULE
*****
 22 24 0 0 0
SMALL
GASTEIGER

@<TRIPOS>ATOM
      1 C         138.9614  139.3931  164.4757 C.3     1  UNL1        0.1038
      2 C         137.8462  139.5895  163.4920 C.3     1  UNL1        0.2106
      3 O         137.4619  140.9736  163.0604 O.3     1  UNL1       -0.4755
      4 C         138.1929  142.1615  163.6125 C.ar    1  UNL1        0.1379
      5 C         137.8086  143.5457  163.1809 C.ar    1  UNL1        0.0367
      6 C         138.5396  144.7334  163.7329 C.ar    1  UNL1        0.0031
      7 C         139.6548  144.5370  164.7166 C.ar    1  UNL1       -0.0000
      8 C         140.0391  143.1529  165.1483 C.ar    1  UNL1        0.0022
      9 C         139.3081  141.9651  164.5962 C.ar    1  UNL1        0.0513
     10 C         139.6924  140.5808  165.0278 C.3     1  UNL1        0.1959
     11 C         139.3457  138.0088  164.9074 C.3     1  UNL1        0.0763
     12 C         141.3199  137.3680  163.3448 C.3     1  UNL1        0.0859
     13 N         140.7557  137.5306  164.7251 N.3     1  UNL1       -0.2961
     14 H         141.3571  138.1946  165.2127 H       1  UNL1        0.1233
     15 O         140.8076  140.3844  166.0115 O.3     1  UNL1       -0.4748
     16 C         140.5840  140.6734  167.4664 C.ar    1  UNL1        0.1348
     17 C         139.3936  140.0943  168.1717 C.ar    1  UNL1        0.0366
     18 C         139.1700  140.3833  169.6265 C.ar    1  UNL1        0.0031
     19 C         140.1368  141.2514  170.3760 C.ar    1  UNL1       -0.0001
     20 C         141.3272  141.8305  169.6706 C.ar    1  UNL1       -0.0013
     21 C         141.5508  141.5415  168.2158 C.ar    1  UNL1        0.0121
     22 C         142.7412  142.1206  167.5104 C.3     1  UNL1        0.0342
@<TRIPOS>BOND
     1    12    13    1
     2    13    11    1
     3     1    11    1
     4     1     2    1
     5     2     3    1
     6     3     4    1
     7     4     5   ar
     8     5     6   ar
     9     6     7   ar
    10     7     8   ar
    11     8     9   ar
    12     9    10    1
    13    10    15    1
    14    15    16    1
    15    16    17   ar
    16    17    18   ar
    17    18    19   ar
    18    19    20   ar
    19    20    21   ar
    20    21    22    1
    21    10     1    1
    22    21    16   ar
    23     9     4   ar
    24    13    14    1
