@<TRIPOS>MOLECULE
*****
 31 33 0 0 0
SMALL
GASTEIGER

@<TRIPOS>ATOM
      1 C         142.6402  139.9234  165.0529 C.3     1  UNL1        0.1363
      2 N         142.9890  141.2454  164.4360 N.ar    1  UNL1       -0.2662
      3 C         142.8116  142.5103  165.2225 C.ar    1  UNL1        0.2046
      4 N         143.1604  143.8323  164.6055 N.ar    1  UNL1       -0.1998
      5 C         143.6864  143.8894  163.2020 C.ar    1  UNL1        0.1389
      6 N         144.0351  145.2115  162.5850 N.pl3   1  UNL1       -0.3420
      7 C         143.8637  142.6246  162.4154 C.ar    1  UNL1        0.1169
      8 C         143.5150  141.3026  163.0324 C.ar    1  UNL1        0.2716
      9 O         143.6923  140.0377  162.2458 O.2     1  UNL1       -0.2663
     10 H         143.9188  146.0416  163.1012 H       1  UNL1        0.1437
     11 H         144.3804  145.2490  161.6638 H       1  UNL1        0.1437
     12 N         142.2856  142.4531  166.6261 N.pl3   1  UNL1       -0.2794
     13 C         143.2326  142.2730  167.7753 C.3     1  UNL1        0.0936
     14 C         142.7066  142.2158  169.1789 C.3     1  UNL1        0.0229
     15 C         141.2334  142.3389  169.4333 C.3     1  UNL1        0.0176
     16 C         139.9323  142.4077  170.1763 C.3     1  UNL1        0.0015
     17 C         140.2864  142.5191  168.2840 C.3     1  UNL1        0.0229
     18 C         140.8124  142.5762  166.8805 C.3     1  UNL1        0.0936
     19 C         141.7286  142.1826  170.8405 C.3     1  UNL1        0.0652
     20 N         140.7505  142.0241  171.9665 N.3     1  UNL1       -0.3211
     21 H         140.2095  142.8826  172.0703 H       1  UNL1        0.1189
     22 H         141.2560  141.8341  172.8318 H       1  UNL1        0.1189
     23 S         144.3898  142.6817  161.0118 S.3     1  UNL1       -0.0786
     24 C         143.4428  142.8623  159.8627 C.ar    1  UNL1        0.0411
     25 C         141.9813  143.0789  160.1221 C.ar    1  UNL1        0.0074
     26 C         141.0343  143.2595  158.9729 C.ar    1  UNL1        0.0014
     27 C         141.5487  143.2235  157.5644 C.ar    1  UNL1        0.0123
     28 C         143.0101  143.0068  157.3050 C.ar    1  UNL1        0.0687
     29 CL        143.5246  142.9708  155.8964 Cl      1  UNL1       -0.0813
     30 C         143.9572  142.8263  158.4541 C.ar    1  UNL1        0.0741
     31 CL        145.4186  142.6096  158.1946 Cl      1  UNL1       -0.0808
@<TRIPOS>BOND
     1     1     2    1
     2     2     3   ar
     3     3    12    1
     4    12    13    1
     5    13    14    1
     6    14    15    1
     7    15    16    1
     8    15    19    1
     9    19    20    1
    10    15    17    1
    11    17    18    1
    12     3     4   ar
    13     4     5   ar
    14     5     6    1
    15     5     7   ar
    16     7    23    1
    17    23    24    1
    18    24    25   ar
    19    25    26   ar
    20    26    27   ar
    21    27    28   ar
    22    28    29    1
    23    28    30   ar
    24    30    31    1
    25     7     8   ar
    26     8     9    2
    27     8     2   ar
    28    18    12    1
    29    30    24   ar
    30    20    21    1
    31    20    22    1
    32     6    10    1
    33     6    11    1
@<TRIPOS>MOLECULE
*****
 31 33 0 0 0
SMALL
GASTEIGER

@<TRIPOS>ATOM
      1 C         140.1757  142.5336  164.3124 C.3     1  UNL1        0.1363
      2 N         141.4509  141.7488  164.2239 N.ar    1  UNL1       -0.2662
      3 C         141.9955  141.0629  165.4417 C.ar    1  UNL1        0.2046
      4 N         143.2708  140.2782  165.3532 N.ar    1  UNL1       -0.1998
      5 C         144.0015  140.1793  164.0470 C.ar    1  UNL1        0.1389
      6 N         145.2768  139.3945  163.9586 N.pl3   1  UNL1       -0.3420
      7 C         143.4569  140.8652  162.8293 C.ar    1  UNL1        0.1169
      8 C         142.1817  141.6499  162.9177 C.ar    1  UNL1        0.2716
      9 O         141.6371  142.3359  161.6999 O.2     1  UNL1       -0.2663
     10 H         145.6342  138.9444  164.7579 H       1  UNL1        0.1437
     11 H         145.7564  139.3297  163.1012 H       1  UNL1        0.1437
     12 N         141.2648  141.1618  166.7480 N.pl3   1  UNL1       -0.2794
     13 C         141.4749  142.3517  167.6367 C.3     1  UNL1        0.0936
     14 C         140.7441  142.4506  168.9430 C.3     1  UNL1        0.0229
     15 C         139.8033  141.3595  169.3605 C.3     1  UNL1        0.0176
     16 C         138.8165  140.5886  170.1862 C.3     1  UNL1        0.0015
     17 C         139.5933  140.1695  168.4717 C.3     1  UNL1        0.0229
     18 C         140.3240  140.0707  167.1655 C.3     1  UNL1        0.0936
     19 C         139.6707  142.2817  170.5360 C.3     1  UNL1        0.0652
     20 N         140.5648  142.1106  171.7281 N.3     1  UNL1       -0.3211
     21 H         140.3572  141.2221  172.1841 H       1  UNL1        0.1189
     22 H         140.4060  142.8749  172.3847 H       1  UNL1        0.1189
     23 S         144.1877  140.7663  161.5230 S.3     1  UNL1       -0.0786
     24 C         143.6977  139.8299  160.4585 C.ar    1  UNL1        0.0411
     25 C         143.4080  138.3972  160.7954 C.ar    1  UNL1        0.0074
     26 C         142.9180  137.4608  159.7308 C.ar    1  UNL1        0.0014
     27 C         142.7179  137.9571  158.3296 C.ar    1  UNL1        0.0123
     28 C         143.0076  139.3898  157.9927 C.ar    1  UNL1        0.0687
     29 CL        142.8075  139.8860  156.5915 Cl      1  UNL1       -0.0813
     30 C         143.4975  140.3262  159.0572 C.ar    1  UNL1        0.0741
     31 CL        143.7873  141.7589  158.7203 Cl      1  UNL1       -0.0808
@<TRIPOS>BOND
     1     1     2    1
     2     2     3   ar
     3     3    12    1
     4    12    13    1
     5    13    14    1
     6    14    15    1
     7    15    16    1
     8    15    19    1
     9    19    20    1
    10    15    17    1
    11    17    18    1
    12     3     4   ar
    13     4     5   ar
    14     5     6    1
    15     5     7   ar
    16     7    23    1
    17    23    24    1
    18    24    25   ar
    19    25    26   ar
    20    26    27   ar
    21    27    28   ar
    22    28    29    1
    23    28    30   ar
    24    30    31    1
    25     7     8   ar
    26     8     9    2
    27     8     2   ar
    28    18    12    1
    29    30    24   ar
    30    20    21    1
    31    20    22    1
    32     6    10    1
    33     6    11    1
@<TRIPOS>MOLECULE
*****
 31 33 0 0 0
SMALL
GASTEIGER

@<TRIPOS>ATOM
      1 C         142.2931  141.2466  164.7549 C.3     1  UNL1        0.1363
      2 N         141.1053  141.9954  164.2273 N.ar    1  UNL1       -0.2662
      3 C         139.9696  142.3421  165.1438 C.ar    1  UNL1        0.2046
      4 N         138.7818  143.0909  164.6161 N.ar    1  UNL1       -0.1998
      5 C         138.7297  143.4930  163.1720 C.ar    1  UNL1        0.1389
      6 N         137.5419  144.2419  162.6443 N.pl3   1  UNL1       -0.3420
      7 C         139.8654  143.1463  162.2555 C.ar    1  UNL1        0.1169
      8 C         141.0531  142.3975  162.7832 C.ar    1  UNL1        0.2716
      9 O         142.1888  142.0507  161.8666 O.2     1  UNL1       -0.2663
     10 H         136.7965  144.4694  163.2459 H       1  UNL1        0.1437
     11 H         137.5077  144.5058  161.6965 H       1  UNL1        0.1437
     12 N         140.0217  141.9400  166.5880 N.pl3   1  UNL1       -0.2794
     13 C         140.5426  142.9005  167.6156 C.3     1  UNL1        0.0936
     14 C         140.5947  142.4984  169.0598 C.3     1  UNL1        0.0229
     15 C         140.1258  141.1358  169.4763 C.3     1  UNL1        0.0176
     16 C         139.7984  139.9657  170.3558 C.3     1  UNL1        0.0015
     17 C         139.6049  140.1753  168.4486 C.3     1  UNL1        0.0229
     18 C         139.5528  140.5774  167.0045 C.3     1  UNL1        0.0936
     19 C         140.5331  141.6899  170.8094 C.3     1  UNL1        0.0652
     20 N         140.7858  140.7631  171.9613 N.3     1  UNL1       -0.3211
     21 H         139.9142  140.3044  172.2263 H       1  UNL1        0.1189
     22 H         141.1443  141.2957  172.7539 H       1  UNL1        0.1189
     23 S         139.8133  143.5484  160.8113 S.3     1  UNL1       -0.0786
     24 C         139.2046  142.6257  159.7974 C.ar    1  UNL1        0.0411
     25 C         138.6032  141.3229  160.2344 C.ar    1  UNL1        0.0074
     26 C         137.9945  140.4002  159.2204 C.ar    1  UNL1        0.0014
     27 C         137.9871  140.7803  157.7694 C.ar    1  UNL1        0.0123
     28 C         138.5884  142.0832  157.3324 C.ar    1  UNL1        0.0687
     29 CL        138.5811  142.4633  155.8814 Cl      1  UNL1       -0.0813
     30 C         139.1971  143.0059  158.3463 C.ar    1  UNL1        0.0741
     31 CL        139.7985  144.3087  157.9093 Cl      1  UNL1       -0.0808
@<TRIPOS>BOND
     1     1     2    1
     2     2     3   ar
     3     3    12    1
     4    12    13    1
     5    13    14    1
     6    14    15    1
     7    15    16    1
     8    15    19    1
     9    19    20    1
    10    15    17    1
    11    17    18    1
    12     3     4   ar
    13     4     5   ar
    14     5     6    1
    15     5     7   ar
    16     7    23    1
    17    23    24    1
    18    24    25   ar
    19    25    26   ar
    20    26    27   ar
    21    27    28   ar
    22    28    29    1
    23    28    30   ar
    24    30    31    1
    25     7     8   ar
    26     8     9    2
    27     8     2   ar
    28    18    12    1
    29    30    24   ar
    30    20    21    1
    31    20    22    1
    32     6    10    1
    33     6    11    1
@<TRIPOS>MOLECULE
*****
 31 33 0 0 0
SMALL
GASTEIGER

@<TRIPOS>ATOM
      1 C         142.4475  138.4173  165.8253 C.3     1  UNL1        0.1363
      2 N         141.1788  138.9393  165.2185 N.ar    1  UNL1       -0.2662
      3 C         140.4265  140.0486  165.8918 C.ar    1  UNL1        0.2046
      4 N         139.1578  140.5706  165.2850 N.ar    1  UNL1       -0.1998
      5 C         138.6416  139.9833  164.0050 C.ar    1  UNL1        0.1389
      6 N         137.3730  140.5052  163.3983 N.pl3   1  UNL1       -0.3420
      7 C         139.3940  138.8740  163.3317 C.ar    1  UNL1        0.1169
      8 C         140.6626  138.3520  163.9385 C.ar    1  UNL1        0.2716
      9 O         141.4150  137.2426  163.2652 O.2     1  UNL1       -0.2663
     10 H         136.8792  141.2333  163.8402 H       1  UNL1        0.1437
     11 H         137.0341  140.1197  162.5581 H       1  UNL1        0.1437
     12 N         140.9427  140.6360  167.1719 N.pl3   1  UNL1       -0.2794
     13 C         140.4167  140.1452  168.4881 C.3     1  UNL1        0.0936
     14 C         140.9329  140.7326  169.7681 C.3     1  UNL1        0.0229
     15 C         141.9752  141.8108  169.7319 C.3     1  UNL1        0.0176
     16 C         142.9526  142.8430  170.2106 C.3     1  UNL1        0.0015
     17 C         142.5012  142.3016  168.4156 C.3     1  UNL1        0.0229
     18 C         141.9849  141.7142  167.1357 C.3     1  UNL1        0.0936
     19 C         141.7886  141.6785  171.2144 C.3     1  UNL1        0.0652
     20 N         140.5196  142.1556  171.8561 N.3     1  UNL1       -0.3211
     21 H         140.4531  143.1694  171.7656 H       1  UNL1        0.1189
     22 H         140.5220  141.9020  172.8441 H       1  UNL1        0.1189
     23 S         138.8777  138.2866  162.0517 S.3     1  UNL1       -0.0786
     24 C         139.3658  138.8127  160.7345 C.ar    1  UNL1        0.0411
     25 C         140.7893  138.5883  160.3182 C.ar    1  UNL1        0.0074
     26 C         141.2773  139.1145  159.0010 C.ar    1  UNL1        0.0014
     27 C         140.3419  139.8651  158.1002 C.ar    1  UNL1        0.0123
     28 C         138.9184  140.0895  158.5165 C.ar    1  UNL1        0.0687
     29 CL        137.9830  140.8402  157.6157 Cl      1  UNL1       -0.0813
     30 C         138.4304  139.5634  159.8336 C.ar    1  UNL1        0.0741
     31 CL        137.0069  139.7878  160.2499 Cl      1  UNL1       -0.0808
@<TRIPOS>BOND
     1     1     2    1
     2     2     3   ar
     3     3    12    1
     4    12    13    1
     5    13    14    1
     6    14    15    1
     7    15    16    1
     8    15    19    1
     9    19    20    1
    10    15    17    1
    11    17    18    1
    12     3     4   ar
    13     4     5   ar
    14     5     6    1
    15     5     7   ar
    16     7    23    1
    17    23    24    1
    18    24    25   ar
    19    25    26   ar
    20    26    27   ar
    21    27    28   ar
    22    28    29    1
    23    28    30   ar
    24    30    31    1
    25     7     8   ar
    26     8     9    2
    27     8     2   ar
    28    18    12    1
    29    30    24   ar
    30    20    21    1
    31    20    22    1
    32     6    10    1
    33     6    11    1
@<TRIPOS>MOLECULE
*****
 31 33 0 0 0
SMALL
GASTEIGER

@<TRIPOS>ATOM
      1 C         139.2579  142.2267  165.3725 C.3     1  UNL1        0.1363
      2 N         139.7420  140.8847  164.9090 N.ar    1  UNL1       -0.2662
      3 C         140.7454  140.1261  165.7261 C.ar    1  UNL1        0.2046
      4 N         141.2295  138.7842  165.2625 N.ar    1  UNL1       -0.1998
      5 C         140.7102  138.2009  163.9819 C.ar    1  UNL1        0.1389
      6 N         141.1943  136.8589  163.5184 N.pl3   1  UNL1       -0.3420
      7 C         139.7068  138.9595  163.1648 C.ar    1  UNL1        0.1169
      8 C         139.2227  140.3014  163.6284 C.ar    1  UNL1        0.2716
      9 O         138.2193  141.0600  162.8112 O.2     1  UNL1       -0.2663
     10 H         141.8529  136.3610  164.0547 H       1  UNL1        0.1437
     11 H         140.8535  136.4761  162.6779 H       1  UNL1        0.1437
     12 N         141.2648  140.7095  167.0067 N.pl3   1  UNL1       -0.2794
     13 C         140.5564  140.4311  168.2993 C.3     1  UNL1        0.0936
     14 C         141.0758  141.0144  169.5800 C.3     1  UNL1        0.0229
     15 C         142.3035  141.8762  169.5680 C.3     1  UNL1        0.0176
     16 C         143.4198  142.7461  170.0649 C.3     1  UNL1        0.0015
     17 C         143.0118  142.1546  168.2754 C.3     1  UNL1        0.0229
     18 C         142.4925  141.5712  166.9948 C.3     1  UNL1        0.0936
     19 C         141.9828  141.8999  171.0331 C.3     1  UNL1        0.0652
     20 N         142.1770  140.6658  171.8634 N.3     1  UNL1       -0.3211
     21 H         141.5243  139.9441  171.5575 H       1  UNL1        0.1189
     22 H         142.0053  140.8857  172.8445 H       1  UNL1        0.1189
     23 S         139.1875  138.3761  161.8842 S.3     1  UNL1       -0.0786
     24 C         139.7846  138.7941  160.5732 C.ar    1  UNL1        0.0411
     25 C         141.2165  138.4711  160.2642 C.ar    1  UNL1        0.0074
     26 C         141.8136  138.8891  158.9532 C.ar    1  UNL1        0.0014
     27 C         140.9788  139.6300  157.9511 C.ar    1  UNL1        0.0123
     28 C         139.5470  139.9530  158.2601 C.ar    1  UNL1        0.0687
     29 CL        138.7122  140.6940  157.2580 Cl      1  UNL1       -0.0813
     30 C         138.9499  139.5351  159.5711 C.ar    1  UNL1        0.0741
     31 CL        137.5180  139.8581  159.8800 Cl      1  UNL1       -0.0808
@<TRIPOS>BOND
     1     1     2    1
     2     2     3   ar
     3     3    12    1
     4    12    13    1
     5    13    14    1
     6    14    15    1
     7    15    16    1
     8    15    19    1
     9    19    20    1
    10    15    17    1
    11    17    18    1
    12     3     4   ar
    13     4     5   ar
    14     5     6    1
    15     5     7   ar
    16     7    23    1
    17    23    24    1
    18    24    25   ar
    19    25    26   ar
    20    26    27   ar
    21    27    28   ar
    22    28    29    1
    23    28    30   ar
    24    30    31    1
    25     7     8   ar
    26     8     9    2
    27     8     2   ar
    28    18    12    1
    29    30    24   ar
    30    20    21    1
    31    20    22    1
    32     6    10    1
    33     6    11    1
@<TRIPOS>MOLECULE
*****
 31 33 0 0 0
SMALL
GASTEIGER

@<TRIPOS>ATOM
      1 C         140.7203  138.9861  165.7143 C.3     1  UNL1        0.1363
      2 N         141.9495  139.6122  165.1253 N.ar    1  UNL1       -0.2662
      3 C         142.6354  140.7370  165.8425 C.ar    1  UNL1        0.2046
      4 N         143.8646  141.3632  165.2535 N.ar    1  UNL1       -0.1998
      5 C         144.4080  140.8645  163.9474 C.ar    1  UNL1        0.1389
      6 N         145.6372  141.4907  163.3584 N.pl3   1  UNL1       -0.3420
      7 C         143.7222  139.7397  163.2302 C.ar    1  UNL1        0.1169
      8 C         142.4929  139.1136  163.8192 C.ar    1  UNL1        0.2716
      9 O         141.8071  137.9887  163.1020 O.2     1  UNL1       -0.2663
     10 H         146.0874  142.2290  163.8291 H       1  UNL1        0.1437
     11 H         145.9939  141.1634  162.5011 H       1  UNL1        0.1437
     12 N         142.0920  141.2357  167.1487 N.pl3   1  UNL1       -0.2794
     13 C         142.5314  140.6015  168.4349 C.3     1  UNL1        0.0936
     14 C         141.9880  141.1002  169.7411 C.3     1  UNL1        0.0229
     15 C         141.0052  142.2332  169.7610 C.3     1  UNL1        0.0176
     16 C         140.0612  143.2711  170.2915 C.3     1  UNL1        0.0015
     17 C         140.5658  142.8675  168.4746 C.3     1  UNL1        0.0229
     18 C         141.1092  142.3687  167.1685 C.3     1  UNL1        0.0936
     19 C         141.1168  141.9594  171.2315 C.3     1  UNL1        0.0652
     20 N         140.7083  140.6239  171.7789 N.3     1  UNL1       -0.3211
     21 H         139.7031  140.5000  171.6580 H       1  UNL1        0.1189
     22 H         140.9396  140.5780  172.7712 H       1  UNL1        0.1189
     23 S         144.2656  139.2410  161.9240 S.3     1  UNL1       -0.0786
     24 C         143.6713  139.7197  160.6327 C.ar    1  UNL1        0.0411
     25 C         143.6862  141.1815  160.2966 C.ar    1  UNL1        0.0074
     26 C         143.0919  141.6603  159.0052 C.ar    1  UNL1        0.0014
     27 C         142.4826  140.6772  158.0500 C.ar    1  UNL1        0.0123
     28 C         142.4677  139.2155  158.3861 C.ar    1  UNL1        0.0687
     29 CL        141.8585  138.2324  157.4309 Cl      1  UNL1       -0.0813
     30 C         143.0620  138.7367  159.6774 C.ar    1  UNL1        0.0741
     31 CL        143.0471  137.2749  160.0135 Cl      1  UNL1       -0.0808
@<TRIPOS>BOND
     1     1     2    1
     2     2     3   ar
     3     3    12    1
     4    12    13    1
     5    13    14    1
     6    14    15    1
     7    15    16    1
     8    15    19    1
     9    19    20    1
    10    15    17    1
    11    17    18    1
    12     3     4   ar
    13     4     5   ar
    14     5     6    1
    15     5     7   ar
    16     7    23    1
    17    23    24    1
    18    24    25   ar
    19    25    26   ar
    20    26    27   ar
    21    27    28   ar
    22    28    29    1
    23    28    30   ar
    24    30    31    1
    25     7     8   ar
    26     8     9    2
    27     8     2   ar
    28    18    12    1
    29    30    24   ar
    30    20    21    1
    31    20    22    1
    32     6    10    1
    33     6    11    1
@<TRIPOS>MOLECULE
*****
 31 33 0 0 0
SMALL
GASTEIGER

@<TRIPOS>ATOM
      1 C         142.4773  143.1890  160.6754 C.3     1  UNL1        0.1363
      2 N         141.3037  143.5060  161.5542 N.ar    1  UNL1       -0.2662
      3 C         140.0541  144.0825  160.9577 C.ar    1  UNL1        0.2046
      4 N         138.8806  144.3995  161.8366 N.ar    1  UNL1       -0.1998
      5 C         138.9567  144.1399  163.3120 C.ar    1  UNL1        0.1389
      6 N         137.7832  144.4569  164.1908 N.pl3   1  UNL1       -0.3420
      7 C         140.2064  143.5633  163.9085 C.ar    1  UNL1        0.1169
      8 C         141.3799  143.2463  163.0296 C.ar    1  UNL1        0.2716
      9 O         142.6296  142.6697  163.6262 O.2     1  UNL1       -0.2663
     10 H         136.9630  144.8353  163.7993 H       1  UNL1        0.1437
     11 H         137.8332  144.2865  165.1592 H       1  UNL1        0.1437
     12 N         139.9779  144.3422  159.4823 N.pl3   1  UNL1       -0.2794
     13 C         140.4639  145.6469  158.9243 C.3     1  UNL1        0.0936
     14 C         140.3877  145.9066  157.4488 C.3     1  UNL1        0.0229
     15 C         139.8255  144.8614  156.5315 C.3     1  UNL1        0.0176
     16 C         139.3781  144.1882  155.2679 C.3     1  UNL1        0.0015
     17 C         139.3394  143.5566  157.0895 C.3     1  UNL1        0.0229
     18 C         139.4156  143.2970  158.5649 C.3     1  UNL1        0.0936
     19 C         140.1561  145.9324  155.5346 C.3     1  UNL1        0.0652
     20 N         139.9654  147.3761  155.8939 N.3     1  UNL1       -0.3211
     21 H         138.9717  147.5656  156.0246 H       1  UNL1        0.1189
     22 H         140.3278  147.9640  155.1433 H       1  UNL1        0.1189
     23 S         140.2826  143.3037  165.3839 S.3     1  UNL1       -0.0786
     24 C         139.8004  141.9973  165.9414 C.ar    1  UNL1        0.0411
     25 C         138.9466  141.0933  165.1025 C.ar    1  UNL1        0.0074
     26 C         138.4645  139.7868  165.6601 C.ar    1  UNL1        0.0014
     27 C         138.8361  139.3845  167.0565 C.ar    1  UNL1        0.0123
     28 C         139.6899  140.2885  167.8954 C.ar    1  UNL1        0.0687
     29 CL        140.0615  139.8862  169.2918 Cl      1  UNL1       -0.0813
     30 C         140.1720  141.5949  167.3379 C.ar    1  UNL1        0.0741
     31 CL        141.0258  142.4990  168.1768 Cl      1  UNL1       -0.0808
@<TRIPOS>BOND
     1     1     2    1
     2     2     3   ar
     3     3    12    1
     4    12    13    1
     5    13    14    1
     6    14    15    1
     7    15    16    1
     8    15    19    1
     9    19    20    1
    10    15    17    1
    11    17    18    1
    12     3     4   ar
    13     4     5   ar
    14     5     6    1
    15     5     7   ar
    16     7    23    1
    17    23    24    1
    18    24    25   ar
    19    25    26   ar
    20    26    27   ar
    21    27    28   ar
    22    28    29    1
    23    28    30   ar
    24    30    31    1
    25     7     8   ar
    26     8     9    2
    27     8     2   ar
    28    18    12    1
    29    30    24   ar
    30    20    21    1
    31    20    22    1
    32     6    10    1
    33     6    11    1
@<TRIPOS>MOLECULE
*****
 31 33 0 0 0
SMALL
GASTEIGER

@<TRIPOS>ATOM
      1 C         141.9272  142.0370  164.6691 C.3     1  UNL1        0.1363
      2 N         141.1105  140.9179  164.0941 N.ar    1  UNL1       -0.2662
      3 C         140.6007  139.8258  164.9870 C.ar    1  UNL1        0.2046
      4 N         139.7840  138.7067  164.4120 N.ar    1  UNL1       -0.1998
      5 C         139.4772  138.6797  162.9440 C.ar    1  UNL1        0.1389
      6 N         138.6605  137.5606  162.3690 N.pl3   1  UNL1       -0.3420
      7 C         139.9869  139.7718  162.0511 C.ar    1  UNL1        0.1169
      8 C         140.8036  140.8909  162.6261 C.ar    1  UNL1        0.2716
      9 O         141.3134  141.9830  161.7331 O.2     1  UNL1       -0.2663
     10 H         138.3259  136.8438  162.9551 H       1  UNL1        0.1437
     11 H         138.4591  137.5429  161.4055 H       1  UNL1        0.1437
     12 N         140.9076  139.8528  166.4551 N.pl3   1  UNL1       -0.2794
     13 C         139.8646  140.3107  167.4311 C.3     1  UNL1        0.0936
     14 C         140.1715  140.3376  168.8991 C.3     1  UNL1        0.0229
     15 C         141.5214  139.9067  169.3912 C.3     1  UNL1        0.0176
     16 C         142.6445  139.5975  170.3361 C.3     1  UNL1        0.0015
     17 C         142.5644  139.4488  168.4152 C.3     1  UNL1        0.0229
     18 C         142.2575  139.4218  166.9472 C.3     1  UNL1        0.0936
     19 C         140.8685  140.2572  170.6953 C.3     1  UNL1        0.0652
     20 N         139.6802  139.4763  171.1729 N.3     1  UNL1       -0.3211
     21 H         138.8946  139.6323  170.5414 H       1  UNL1        0.1189
     22 H         139.4273  139.7826  172.1124 H       1  UNL1        0.1189
     23 S         139.6800  139.7448  160.5830 S.3     1  UNL1       -0.0786
     24 C         140.6096  139.0467  159.6352 C.ar    1  UNL1        0.0411
     25 C         141.8532  138.3872  160.1536 C.ar    1  UNL1        0.0074
     26 C         142.7828  137.6890  159.2057 C.ar    1  UNL1        0.0014
     27 C         142.4688  137.6503  157.7394 C.ar    1  UNL1        0.0123
     28 C         141.2253  138.3098  157.2210 C.ar    1  UNL1        0.0687
     29 CL        140.9113  138.2711  155.7548 Cl      1  UNL1       -0.0813
     30 C         140.2957  139.0079  158.1688 C.ar    1  UNL1        0.0741
     31 CL        139.0521  139.6674  157.6504 Cl      1  UNL1       -0.0808
@<TRIPOS>BOND
     1     1     2    1
     2     2     3   ar
     3     3    12    1
     4    12    13    1
     5    13    14    1
     6    14    15    1
     7    15    16    1
     8    15    19    1
     9    19    20    1
    10    15    17    1
    11    17    18    1
    12     3     4   ar
    13     4     5   ar
    14     5     6    1
    15     5     7   ar
    16     7    23    1
    17    23    24    1
    18    24    25   ar
    19    25    26   ar
    20    26    27   ar
    21    27    28   ar
    22    28    29    1
    23    28    30   ar
    24    30    31    1
    25     7     8   ar
    26     8     9    2
    27     8     2   ar
    28    18    12    1
    29    30    24   ar
    30    20    21    1
    31    20    22    1
    32     6    10    1
    33     6    11    1
@<TRIPOS>MOLECULE
*****
 31 33 0 0 0
SMALL
GASTEIGER

@<TRIPOS>ATOM
      1 C         143.7250  141.8810  165.3416 C.3     1  UNL1        0.1363
      2 N         143.3078  140.7324  164.4718 N.ar    1  UNL1       -0.2662
      3 C         142.2914  139.7469  164.9674 C.ar    1  UNL1        0.2046
      4 N         141.8741  138.5983  164.0976 N.ar    1  UNL1       -0.1998
      5 C         142.4732  138.4352  162.7322 C.ar    1  UNL1        0.1389
      6 N         142.0560  137.2866  161.8623 N.pl3   1  UNL1       -0.3420
      7 C         143.4896  139.4207  162.2366 C.ar    1  UNL1        0.1169
      8 C         143.9069  140.5693  163.1064 C.ar    1  UNL1        0.2716
      9 O         144.9233  141.5548  162.6107 O.2     1  UNL1       -0.2663
     10 H         141.3889  136.6397  162.1876 H       1  UNL1        0.1437
     11 H         142.4492  137.1795  160.9662 H       1  UNL1        0.1437
     12 N         141.6922  139.9099  166.3329 N.pl3   1  UNL1       -0.2794
     13 C         142.5043  139.5864  167.5518 C.3     1  UNL1        0.0936
     14 C         141.9051  139.7495  168.9173 C.3     1  UNL1        0.0229
     15 C         140.4938  140.2361  169.0637 C.3     1  UNL1        0.0176
     16 C         139.2097  140.6616  169.7117 C.3     1  UNL1        0.0015
     17 C         139.6817  140.5596  167.8447 C.3     1  UNL1        0.0229
     18 C         140.2809  140.3966  166.4794 C.3     1  UNL1        0.0936
     19 C         140.8600  140.0603  170.5077 C.3     1  UNL1        0.0652
     20 N         139.9097  139.3751  171.4444 N.3     1  UNL1       -0.3211
     21 H         139.0681  139.9417  171.5494 H       1  UNL1        0.1189
     22 H         140.3554  139.2563  172.3541 H       1  UNL1        0.1189
     23 S         144.0888  139.2576  160.8711 S.3     1  UNL1       -0.0786
     24 C         143.4542  139.9278  159.6887 C.ar    1  UNL1        0.0411
     25 C         143.4222  141.4250  159.6029 C.ar    1  UNL1        0.0074
     26 C         142.7876  142.0951  158.4205 C.ar    1  UNL1        0.0014
     27 C         142.1849  141.2681  157.3238 C.ar    1  UNL1        0.0123
     28 C         142.2169  139.7708  157.4095 C.ar    1  UNL1        0.0687
     29 CL        141.6143  138.9438  156.3128 Cl      1  UNL1       -0.0813
     30 C         142.8515  139.1007  158.5919 C.ar    1  UNL1        0.0741
     31 CL        142.8835  137.6035  158.6776 Cl      1  UNL1       -0.0808
@<TRIPOS>BOND
     1     1     2    1
     2     2     3   ar
     3     3    12    1
     4    12    13    1
     5    13    14    1
     6    14    15    1
     7    15    16    1
     8    15    19    1
     9    19    20    1
    10    15    17    1
    11    17    18    1
    12     3     4   ar
    13     4     5   ar
    14     5     6    1
    15     5     7   ar
    16     7    23    1
    17    23    24    1
    18    24    25   ar
    19    25    26   ar
    20    26    27   ar
    21    27    28   ar
    22    28    29    1
    23    28    30   ar
    24    30    31    1
    25     7     8   ar
    26     8     9    2
    27     8     2   ar
    28    18    12    1
    29    30    24   ar
    30    20    21    1
    31    20    22    1
    32     6    10    1
    33     6    11    1
