@<TRIPOS>MOLECULE
*****
 34 37 0 0 0
SMALL
GASTEIGER

@<TRIPOS>ATOM
      1 N         142.2732  139.0841  159.4387 N.3     1  UNL1       -0.2673
      2 C         142.6044  138.4015  160.7327 C.3     1  UNL1        0.1035
      3 C         143.4487  139.1021  161.7555 C.3     1  UNL1        0.1470
      4 C         144.2931  139.8026  162.7784 C.3     1  UNL1        0.1035
      5 N         144.8063  141.1858  162.5073 N.3     1  UNL1       -0.2682
      6 C         144.4751  141.8684  161.2132 C.3     1  UNL1        0.1035
      7 C         143.6307  141.1678  160.1904 C.3     1  UNL1        0.1470
      8 C         142.7864  140.4672  159.1676 C.3     1  UNL1        0.1035
      9 O         143.9619  140.4852  161.4844 O.3     1  UNL1       -0.3530
     10 C         141.4288  138.3835  158.4158 C.3     1  UNL1        0.0916
     11 C         139.9415  138.3077  158.5956 C.3     1  UNL1        0.1131
     12 C         138.6913  140.5844  158.5355 C.3     1  UNL1        0.1149
     13 N         139.2150  139.4100  159.3078 N.3     1  UNL1       -0.1526
     14 S         139.0122  139.3378  160.7923 S.O2    1  UNL1        0.0634
     15 O         138.8542  137.8491  160.6983 O.2     1  UNL1       -0.1528
     16 O         139.1701  140.8265  160.8863 O.2     1  UNL1       -0.1528
     17 C         138.8093  139.2656  162.2768 C.ar    1  UNL1        0.1222
     18 C         139.1687  138.0150  163.0229 C.ar    1  UNL1        0.0206
     19 C         138.9659  137.9428  164.5073 C.ar    1  UNL1        0.0116
     20 C         138.4037  139.1212  165.2457 C.ar    1  UNL1        0.0685
     21 C         138.0444  140.3720  164.4996 C.ar    1  UNL1        0.0116
     22 C         138.2472  140.4442  163.0151 C.ar    1  UNL1        0.0206
     23 C         138.2009  139.0490  166.7302 C.1     1  UNL1        0.1004
     24 N         137.9981  138.9768  168.2146 N.1     1  UNL1       -0.1908
     25 C         145.6507  141.8864  163.5301 C.3     1  UNL1        0.0769
     26 C         145.0022  142.5689  164.6979 C.3     1  UNL1        0.0437
     27 C         143.6733  143.2437  164.5289 C.ar    1  UNL1       -0.0184
     28 C         143.5649  144.4900  163.7014 C.ar    1  UNL1       -0.0018
     29 C         142.2359  145.1648  163.5324 C.ar    1  UNL1        0.0316
     30 C         141.0154  144.5933  164.1910 C.ar    1  UNL1        0.1674
     31 F         139.6865  145.2681  164.0220 F       1  UNL1       -0.2018
     32 C         141.1239  143.3469  165.0186 C.ar    1  UNL1        0.1671
     33 F         139.9034  142.7754  165.6771 F       1  UNL1       -0.2018
     34 C         142.4528  142.6721  165.1875 C.ar    1  UNL1        0.0277
@<TRIPOS>BOND
     1    12    13    1
     2    13    11    1
     3    11    10    1
     4    10     1    1
     5     1     2    1
     6     2     3    1
     7     3     4    1
     8     4     5    1
     9     5    25    1
    10    25    26    1
    11    26    27    1
    12    27    28   ar
    13    28    29   ar
    14    29    30   ar
    15    30    31    1
    16    30    32   ar
    17    32    33    1
    18    32    34   ar
    19     5     6    1
    20     6     7    1
    21     7     8    1
    22     7     9    1
    23    13    14    1
    24    14    15    2
    25    14    16    2
    26    14    17    1
    27    17    18   ar
    28    18    19   ar
    29    19    20   ar
    30    20    23    1
    31    23    24    3
    32    20    21   ar
    33    21    22   ar
    34     8     1    1
    35    22    17   ar
    36     9     3    1
    37    34    27   ar
@<TRIPOS>MOLECULE
*****
 34 37 0 0 0
SMALL
GASTEIGER

@<TRIPOS>ATOM
      1 N         143.1856  140.2043  159.5412 N.3     1  UNL1       -0.2673
      2 C         143.8735  140.0120  160.8602 C.3     1  UNL1        0.1035
      3 C         143.9848  141.1576  161.8220 C.3     1  UNL1        0.1470
      4 C         144.0962  142.3032  162.7839 C.3     1  UNL1        0.1035
      5 N         143.5196  143.6411  162.4268 N.3     1  UNL1       -0.2682
      6 C         142.8317  143.8334  161.1077 C.3     1  UNL1        0.1035
      7 C         142.7203  142.6878  160.1459 C.3     1  UNL1        0.1470
      8 C         142.6090  141.5422  159.1841 C.3     1  UNL1        0.1035
      9 O         143.4083  142.4955  161.4649 O.3     1  UNL1       -0.3530
     10 C         143.0742  139.0586  158.5793 C.3     1  UNL1        0.0916
     11 C         142.0412  137.9933  158.7981 C.3     1  UNL1        0.1131
     12 C         139.6807  138.7090  157.9820 C.3     1  UNL1        0.1149
     13 N         140.6225  138.3752  159.1007 N.3     1  UNL1       -0.1526
     14 S         140.1456  138.4232  160.5221 S.O2    1  UNL1        0.0634
     15 O         141.3309  137.6080  160.9473 O.2     1  UNL1       -0.1528
     16 O         138.9604  139.2383  160.0970 O.2     1  UNL1       -0.1528
     17 C         139.6688  138.4711  161.9435 C.ar    1  UNL1        0.1222
     18 C         140.2499  137.5353  162.9615 C.ar    1  UNL1        0.0206
     19 C         139.7731  137.5832  164.3829 C.ar    1  UNL1        0.0116
     20 C         138.7151  138.5671  164.7863 C.ar    1  UNL1        0.0685
     21 C         138.1339  139.5030  163.7682 C.ar    1  UNL1        0.0116
     22 C         138.6108  139.4550  162.3468 C.ar    1  UNL1        0.0206
     23 C         138.2383  138.6151  166.2076 C.1     1  UNL1        0.1004
     24 N         137.7614  138.6630  167.6290 N.1     1  UNL1       -0.1908
     25 C         143.6310  144.7867  163.3886 C.3     1  UNL1        0.0769
     26 C         142.3933  145.4818  163.8736 C.3     1  UNL1        0.0437
     27 C         141.1331  144.7000  164.0980 C.ar    1  UNL1       -0.0184
     28 C         141.1338  143.5292  165.0356 C.ar    1  UNL1       -0.0018
     29 C         139.8734  142.7472  165.2600 C.ar    1  UNL1        0.0316
     30 C         138.6125  143.1362  164.5467 C.ar    1  UNL1        0.1674
     31 F         137.3522  142.3543  164.7711 F       1  UNL1       -0.2018
     32 C         138.6119  144.3070  163.6091 C.ar    1  UNL1        0.1671
     33 F         137.3509  144.6960  162.8958 F       1  UNL1       -0.2018
     34 C         139.8721  145.0889  163.3847 C.ar    1  UNL1        0.0277
@<TRIPOS>BOND
     1    12    13    1
     2    13    11    1
     3    11    10    1
     4    10     1    1
     5     1     2    1
     6     2     3    1
     7     3     4    1
     8     4     5    1
     9     5    25    1
    10    25    26    1
    11    26    27    1
    12    27    28   ar
    13    28    29   ar
    14    29    30   ar
    15    30    31    1
    16    30    32   ar
    17    32    33    1
    18    32    34   ar
    19     5     6    1
    20     6     7    1
    21     7     8    1
    22     7     9    1
    23    13    14    1
    24    14    15    2
    25    14    16    2
    26    14    17    1
    27    17    18   ar
    28    18    19   ar
    29    19    20   ar
    30    20    23    1
    31    23    24    3
    32    20    21   ar
    33    21    22   ar
    34     8     1    1
    35    22    17   ar
    36     9     3    1
    37    34    27   ar
@<TRIPOS>MOLECULE
*****
 34 37 0 0 0
SMALL
GASTEIGER

@<TRIPOS>ATOM
      1 N         139.4761  142.5321  159.8703 N.3     1  UNL1       -0.2673
      2 C         138.9322  143.2140  161.0906 C.3     1  UNL1        0.1035
      3 C         139.8686  143.8545  162.0718 C.3     1  UNL1        0.1470
      4 C         140.8050  144.4950  163.0532 C.3     1  UNL1        0.1035
      5 N         142.2852  144.4537  162.8141 N.3     1  UNL1       -0.2682
      6 C         142.8291  143.7719  161.5937 C.3     1  UNL1        0.1035
      7 C         141.8927  143.1313  160.6124 C.3     1  UNL1        0.1470
      8 C         140.9564  142.4908  159.6312 C.3     1  UNL1        0.1035
      9 O         141.3489  143.8132  161.8328 O.3     1  UNL1       -0.3530
     10 C         138.5397  141.8916  158.8889 C.3     1  UNL1        0.0916
     11 C         138.0483  140.4940  159.1237 C.3     1  UNL1        0.1131
     12 C         139.7543  138.5346  159.1414 C.3     1  UNL1        0.1149
     13 N         138.8976  139.5178  159.8826 N.3     1  UNL1       -0.1526
     14 S         138.8902  139.5249  161.3825 S.O2    1  UNL1        0.0634
     15 O         140.3850  139.4006  161.3905 O.2     1  UNL1       -0.1528
     16 O         137.3954  139.6493  161.3745 O.2     1  UNL1       -0.1528
     17 C         138.8828  139.5321  162.8825 C.ar    1  UNL1        0.1222
     18 C         138.2641  140.6798  163.6240 C.ar    1  UNL1        0.0206
     19 C         138.2567  140.6869  165.1240 C.ar    1  UNL1        0.0116
     20 C         138.8680  139.5463  165.8824 C.ar    1  UNL1        0.0685
     21 C         139.4867  138.3985  165.1409 C.ar    1  UNL1        0.0116
     22 C         139.4941  138.3913  163.6409 C.ar    1  UNL1        0.0206
     23 C         138.8605  139.5534  167.3824 C.1     1  UNL1        0.1004
     24 N         138.8531  139.5605  168.8823 N.1     1  UNL1       -0.1908
     25 C         143.2216  145.0942  163.7954 C.3     1  UNL1        0.0769
     26 C         144.1509  144.2440  164.6101 C.3     1  UNL1        0.0437
     27 C         143.8064  142.8110  164.8884 C.ar    1  UNL1       -0.0184
     28 C         142.6037  142.4767  165.7201 C.ar    1  UNL1       -0.0018
     29 C         142.2591  141.0435  165.9985 C.ar    1  UNL1        0.0316
     30 C         143.1173  139.9447  165.4452 C.ar    1  UNL1        0.1674
     31 F         142.7728  138.5116  165.7235 F       1  UNL1       -0.2018
     32 C         144.3200  140.2791  164.6134 C.ar    1  UNL1        0.1671
     33 F         145.1782  139.1803  164.0601 F       1  UNL1       -0.2018
     34 C         144.6646  141.7122  164.3351 C.ar    1  UNL1        0.0277
@<TRIPOS>BOND
     1    12    13    1
     2    13    11    1
     3    11    10    1
     4    10     1    1
     5     1     2    1
     6     2     3    1
     7     3     4    1
     8     4     5    1
     9     5    25    1
    10    25    26    1
    11    26    27    1
    12    27    28   ar
    13    28    29   ar
    14    29    30   ar
    15    30    31    1
    16    30    32   ar
    17    32    33    1
    18    32    34   ar
    19     5     6    1
    20     6     7    1
    21     7     8    1
    22     7     9    1
    23    13    14    1
    24    14    15    2
    25    14    16    2
    26    14    17    1
    27    17    18   ar
    28    18    19   ar
    29    19    20   ar
    30    20    23    1
    31    23    24    3
    32    20    21   ar
    33    21    22   ar
    34     8     1    1
    35    22    17   ar
    36     9     3    1
    37    34    27   ar
@<TRIPOS>MOLECULE
*****
 34 37 0 0 0
SMALL
GASTEIGER

@<TRIPOS>ATOM
      1 N         139.8178  140.0078  159.5999 N.3     1  UNL1       -0.2673
      2 C         140.1019  141.4470  159.2868 C.3     1  UNL1        0.1035
      3 C         139.6352  142.5239  160.2207 C.3     1  UNL1        0.1470
      4 C         139.1685  143.6010  161.1547 C.3     1  UNL1        0.1035
      5 N         138.4177  143.2388  162.4017 N.3     1  UNL1       -0.2682
      6 C         138.1336  141.7995  162.7148 C.3     1  UNL1        0.1035
      7 C         138.6003  140.7226  161.7809 C.3     1  UNL1        0.1470
      8 C         139.0670  139.6456  160.8470 C.3     1  UNL1        0.1035
      9 O         138.8844  142.1617  161.4678 O.3     1  UNL1       -0.3530
     10 C         140.2845  138.9307  158.6660 C.3     1  UNL1        0.0916
     11 C         141.6525  138.3374  158.8292 C.3     1  UNL1        0.1131
     12 C         143.7244  139.9043  158.7828 C.3     1  UNL1        0.1149
     13 N         142.7198  139.1016  159.5551 N.3     1  UNL1       -0.1526
     14 S         142.7823  139.0632  161.0533 S.O2    1  UNL1        0.0634
     15 O         142.5457  137.5823  161.0252 O.2     1  UNL1       -0.1528
     16 O         143.0190  140.5442  161.0814 O.2     1  UNL1       -0.1528
     17 C         142.8449  139.0248  162.5515 C.ar    1  UNL1        0.1222
     18 C         144.0283  139.6047  163.2679 C.ar    1  UNL1        0.0206
     19 C         144.0909  139.5663  164.7661 C.ar    1  UNL1        0.0116
     20 C         142.9701  138.9479  165.5479 C.ar    1  UNL1        0.0685
     21 C         141.7866  138.3679  164.8316 C.ar    1  UNL1        0.0116
     22 C         141.7240  138.4064  163.3334 C.ar    1  UNL1        0.0206
     23 C         143.0326  138.9095  167.0461 C.1     1  UNL1        0.1004
     24 N         143.0952  138.8711  168.5443 N.1     1  UNL1       -0.1908
     25 C         137.9510  144.3158  163.3357 C.3     1  UNL1        0.0769
     26 C         138.7660  144.6642  164.5458 C.3     1  UNL1        0.0437
     27 C         140.1993  144.2310  164.6349 C.ar    1  UNL1       -0.0184
     28 C         140.5683  143.0204  165.4401 C.ar    1  UNL1       -0.0018
     29 C         142.0016  142.5872  165.5292 C.ar    1  UNL1        0.0316
     30 C         143.0660  143.3645  164.8130 C.ar    1  UNL1        0.1674
     31 F         144.4992  142.9313  164.9020 F       1  UNL1       -0.2018
     32 C         142.6970  144.5751  164.0077 C.ar    1  UNL1        0.1671
     33 F         143.7613  145.3524  163.2915 F       1  UNL1       -0.2018
     34 C         141.2637  145.0083  163.9187 C.ar    1  UNL1        0.0277
@<TRIPOS>BOND
     1    12    13    1
     2    13    11    1
     3    11    10    1
     4    10     1    1
     5     1     2    1
     6     2     3    1
     7     3     4    1
     8     4     5    1
     9     5    25    1
    10    25    26    1
    11    26    27    1
    12    27    28   ar
    13    28    29   ar
    14    29    30   ar
    15    30    31    1
    16    30    32   ar
    17    32    33    1
    18    32    34   ar
    19     5     6    1
    20     6     7    1
    21     7     8    1
    22     7     9    1
    23    13    14    1
    24    14    15    2
    25    14    16    2
    26    14    17    1
    27    17    18   ar
    28    18    19   ar
    29    19    20   ar
    30    20    23    1
    31    23    24    3
    32    20    21   ar
    33    21    22   ar
    34     8     1    1
    35    22    17   ar
    36     9     3    1
    37    34    27   ar
@<TRIPOS>MOLECULE
*****
 34 37 0 0 0
SMALL
GASTEIGER

@<TRIPOS>ATOM
      1 N         139.6722  137.6875  164.4457 N.3     1  UNL1       -0.2673
      2 C         139.1154  137.9671  163.0812 C.3     1  UNL1        0.1035
      3 C         140.0429  138.2362  161.9335 C.3     1  UNL1        0.1470
      4 C         140.9704  138.5053  160.7857 C.3     1  UNL1        0.1035
      5 N         142.4547  138.4948  161.0024 N.3     1  UNL1       -0.2682
      6 C         143.0114  138.2152  162.3670 C.3     1  UNL1        0.1035
      7 C         142.0839  137.9461  163.5147 C.3     1  UNL1        0.1470
      8 C         141.1564  137.6770  164.6624 C.3     1  UNL1        0.1035
      9 O         141.5272  138.2257  162.1502 O.3     1  UNL1       -0.3530
     10 C         138.7446  137.4184  165.5935 C.3     1  UNL1        0.0916
     11 C         138.1050  138.5612  166.3247 C.3     1  UNL1        0.1131
     12 C         139.6507  139.7707  168.0269 C.3     1  UNL1        0.1149
     13 N         138.9250  139.7553  166.7143 N.3     1  UNL1       -0.1526
     14 S         139.0192  140.9339  165.7913 S.O2    1  UNL1        0.0634
     15 O         137.7552  140.5009  165.1094 O.2     1  UNL1       -0.1528
     16 O         140.2832  141.3669  166.4732 O.2     1  UNL1       -0.1528
     17 C         139.1134  142.1125  164.8682 C.ar    1  UNL1        0.1222
     18 C         140.2000  143.1289  165.0582 C.ar    1  UNL1        0.0206
     19 C         140.2942  144.3075  164.1352 C.ar    1  UNL1        0.0116
     20 C         139.3019  144.4697  163.0222 C.ar    1  UNL1        0.0685
     21 C         138.2152  143.4533  162.8321 C.ar    1  UNL1        0.0116
     22 C         138.1210  142.2747  163.7552 C.ar    1  UNL1        0.0206
     23 C         139.3961  145.6484  162.0991 C.1     1  UNL1        0.1004
     24 N         139.4903  146.8270  161.1761 N.1     1  UNL1       -0.1908
     25 C         143.3822  138.7639  159.8547 C.3     1  UNL1        0.0769
     26 C         143.6033  140.1706  159.3830 C.3     1  UNL1        0.0437
     27 C         143.6153  141.2996  160.3704 C.ar    1  UNL1       -0.0184
     28 C         142.6207  142.4155  160.2459 C.ar    1  UNL1       -0.0018
     29 C         142.6327  143.5447  161.2333 C.ar    1  UNL1        0.0316
     30 C         143.6393  143.5578  162.3454 C.ar    1  UNL1        0.1674
     31 F         143.6514  144.6868  163.3328 F       1  UNL1       -0.2018
     32 C         144.6339  142.4418  162.4699 C.ar    1  UNL1        0.1671
     33 F         145.6405  142.4549  163.5819 F       1  UNL1       -0.2018
     34 C         144.6219  141.3128  161.4825 C.ar    1  UNL1        0.0277
@<TRIPOS>BOND
     1    12    13    1
     2    13    11    1
     3    11    10    1
     4    10     1    1
     5     1     2    1
     6     2     3    1
     7     3     4    1
     8     4     5    1
     9     5    25    1
    10    25    26    1
    11    26    27    1
    12    27    28   ar
    13    28    29   ar
    14    29    30   ar
    15    30    31    1
    16    30    32   ar
    17    32    33    1
    18    32    34   ar
    19     5     6    1
    20     6     7    1
    21     7     8    1
    22     7     9    1
    23    13    14    1
    24    14    15    2
    25    14    16    2
    26    14    17    1
    27    17    18   ar
    28    18    19   ar
    29    19    20   ar
    30    20    23    1
    31    23    24    3
    32    20    21   ar
    33    21    22   ar
    34     8     1    1
    35    22    17   ar
    36     9     3    1
    37    34    27   ar
@<TRIPOS>MOLECULE
*****
 34 37 0 0 0
SMALL
GASTEIGER

@<TRIPOS>ATOM
      1 N         142.7787  142.2017  159.3067 N.3     1  UNL1       -0.2673
      2 C         141.3257  142.4422  159.0227 C.3     1  UNL1        0.1035
      3 C         140.4802  143.1834  160.0155 C.3     1  UNL1        0.1470
      4 C         139.6346  143.9248  161.0082 C.3     1  UNL1        0.1035
      5 N         140.2421  144.4256  162.2849 N.3     1  UNL1       -0.2682
      6 C         141.6953  144.1851  162.5689 C.3     1  UNL1        0.1035
      7 C         142.5408  143.4439  161.5761 C.3     1  UNL1        0.1470
      8 C         143.3863  142.7026  160.5834 C.3     1  UNL1        0.1035
      9 O         141.0877  143.6843  161.2922 O.3     1  UNL1       -0.3530
     10 C         143.6243  141.4604  158.3139 C.3     1  UNL1        0.0916
     11 C         143.8624  139.9890  158.4821 C.3     1  UNL1        0.1131
     12 C         141.7999  138.4090  158.4785 C.3     1  UNL1        0.1149
     13 N         142.8682  139.1488  159.2277 N.3     1  UNL1       -0.1526
     14 S         142.9424  139.0485  160.7225 S.O2    1  UNL1        0.0634
     15 O         144.4279  138.8590  160.6360 O.2     1  UNL1       -0.1528
     16 O         141.4569  139.2381  160.8090 O.2     1  UNL1       -0.1528
     17 C         143.0166  138.9482  162.2173 C.ar    1  UNL1        0.1222
     18 C         144.2281  139.4529  162.9436 C.ar    1  UNL1        0.0206
     19 C         144.3023  139.3526  164.4384 C.ar    1  UNL1        0.0116
     20 C         143.1650  138.7476  165.2069 C.ar    1  UNL1        0.0685
     21 C         141.9534  138.2430  164.4806 C.ar    1  UNL1        0.0116
     22 C         141.8792  138.3433  162.9858 C.ar    1  UNL1        0.0206
     23 C         143.2392  138.6473  166.7017 C.1     1  UNL1        0.1004
     24 N         143.3134  138.5470  168.1965 N.1     1  UNL1       -0.1908
     25 C         139.3966  145.1669  163.2777 C.3     1  UNL1        0.0769
     26 C         139.1020  144.5564  164.6159 C.3     1  UNL1        0.0437
     27 C         138.9162  143.0731  164.7390 C.ar    1  UNL1       -0.0184
     28 C         137.9185  142.3675  163.8691 C.ar    1  UNL1       -0.0018
     29 C         137.7327  140.8841  163.9922 C.ar    1  UNL1        0.0316
     30 C         138.5445  140.1064  164.9852 C.ar    1  UNL1        0.1674
     31 F         138.3586  138.6231  165.1083 F       1  UNL1       -0.2018
     32 C         139.5422  140.8121  165.8551 C.ar    1  UNL1        0.1671
     33 F         140.3540  140.0343  166.8482 F       1  UNL1       -0.2018
     34 C         139.7280  142.2954  165.7320 C.ar    1  UNL1        0.0277
@<TRIPOS>BOND
     1    12    13    1
     2    13    11    1
     3    11    10    1
     4    10     1    1
     5     1     2    1
     6     2     3    1
     7     3     4    1
     8     4     5    1
     9     5    25    1
    10    25    26    1
    11    26    27    1
    12    27    28   ar
    13    28    29   ar
    14    29    30   ar
    15    30    31    1
    16    30    32   ar
    17    32    33    1
    18    32    34   ar
    19     5     6    1
    20     6     7    1
    21     7     8    1
    22     7     9    1
    23    13    14    1
    24    14    15    2
    25    14    16    2
    26    14    17    1
    27    17    18   ar
    28    18    19   ar
    29    19    20   ar
    30    20    23    1
    31    23    24    3
    32    20    21   ar
    33    21    22   ar
    34     8     1    1
    35    22    17   ar
    36     9     3    1
    37    34    27   ar
@<TRIPOS>MOLECULE
*****
 34 37 0 0 0
SMALL
GASTEIGER

@<TRIPOS>ATOM
      1 N         142.0630  140.4051  159.0060 N.3     1  UNL1       -0.2673
      2 C         143.0183  141.5531  159.1448 C.3     1  UNL1        0.1035
      3 C         142.5075  142.9126  159.5201 C.3     1  UNL1        0.1470
      4 C         141.9967  144.2722  159.8953 C.3     1  UNL1        0.1035
      5 N         140.5306  144.4836  160.1317 N.3     1  UNL1       -0.2682
      6 C         139.5753  143.3354  159.9928 C.3     1  UNL1        0.1035
      7 C         140.0861  141.9760  159.6176 C.3     1  UNL1        0.1470
      8 C         140.5969  140.6165  159.2423 C.3     1  UNL1        0.1035
      9 O         141.0414  143.1240  159.7564 O.3     1  UNL1       -0.3530
     10 C         142.5738  139.0455  158.6307 C.3     1  UNL1        0.0916
     11 C         142.6260  137.9540  159.6583 C.3     1  UNL1        0.1131
     12 C         144.4573  138.6235  161.3754 C.3     1  UNL1        0.1149
     13 N         143.0327  138.2693  161.0673 N.3     1  UNL1       -0.1526
     14 S         142.0146  138.2302  162.1683 S.O2    1  UNL1        0.0634
     15 O         141.0146  137.6341  161.2224 O.2     1  UNL1       -0.1528
     16 O         143.0146  138.8264  163.1141 O.2     1  UNL1       -0.1528
     17 C         140.9966  138.1912  163.2692 C.ar    1  UNL1        0.1222
     18 C         141.3441  138.7153  164.6310 C.ar    1  UNL1        0.0206
     19 C         140.3260  138.6763  165.7319 C.ar    1  UNL1        0.0116
     20 C         138.9605  138.1132  165.4711 C.ar    1  UNL1        0.0685
     21 C         138.6129  137.5891  164.1092 C.ar    1  UNL1        0.0116
     22 C         139.6309  137.6281  163.0083 C.ar    1  UNL1        0.0206
     23 C         137.9424  138.0742  166.5720 C.1     1  UNL1        0.1004
     24 N         136.9244  138.0352  167.6730 N.1     1  UNL1       -0.1908
     25 C         140.0198  145.8431  160.5069 C.3     1  UNL1        0.0769
     26 C         139.8324  146.2015  161.9514 C.3     1  UNL1        0.0437
     27 C         139.8216  145.1251  162.9960 C.ar    1  UNL1       -0.0184
     28 C         141.0948  144.7400  163.6892 C.ar    1  UNL1       -0.0018
     29 C         141.0841  143.6635  164.7338 C.ar    1  UNL1        0.0316
     30 C         139.8001  142.9722  165.0851 C.ar    1  UNL1        0.1674
     31 F         139.7894  141.8957  166.1297 F       1  UNL1       -0.2018
     32 C         138.5269  143.3573  164.3919 C.ar    1  UNL1        0.1671
     33 F         137.2429  142.6660  164.7432 F       1  UNL1       -0.2018
     34 C         138.5377  144.4338  163.3473 C.ar    1  UNL1        0.0277
@<TRIPOS>BOND
     1    12    13    1
     2    13    11    1
     3    11    10    1
     4    10     1    1
     5     1     2    1
     6     2     3    1
     7     3     4    1
     8     4     5    1
     9     5    25    1
    10    25    26    1
    11    26    27    1
    12    27    28   ar
    13    28    29   ar
    14    29    30   ar
    15    30    31    1
    16    30    32   ar
    17    32    33    1
    18    32    34   ar
    19     5     6    1
    20     6     7    1
    21     7     8    1
    22     7     9    1
    23    13    14    1
    24    14    15    2
    25    14    16    2
    26    14    17    1
    27    17    18   ar
    28    18    19   ar
    29    19    20   ar
    30    20    23    1
    31    23    24    3
    32    20    21   ar
    33    21    22   ar
    34     8     1    1
    35    22    17   ar
    36     9     3    1
    37    34    27   ar
@<TRIPOS>MOLECULE
*****
 34 37 0 0 0
SMALL
GASTEIGER

@<TRIPOS>ATOM
      1 N         139.6520  141.2007  158.9850 N.3     1  UNL1       -0.2673
      2 C         140.8539  140.5360  159.5880 C.3     1  UNL1        0.1035
      3 C         140.6869  139.5767  160.7289 C.3     1  UNL1        0.1470
      4 C         140.5200  138.6174  161.8700 C.3     1  UNL1        0.1035
      5 N         139.1511  138.3228  162.4080 N.3     1  UNL1       -0.2682
      6 C         137.9492  138.9876  161.8050 C.3     1  UNL1        0.1035
      7 C         138.1162  139.9469  160.6640 C.3     1  UNL1        0.1470
      8 C         138.2831  140.9062  159.5231 C.3     1  UNL1        0.1035
      9 O         139.3181  139.2822  161.2670 O.3     1  UNL1       -0.3530
     10 C         139.8189  142.1601  157.8440 C.3     1  UNL1        0.0916
     11 C         139.2878  143.5584  157.9560 C.3     1  UNL1        0.1131
     12 C         140.3189  145.9106  157.5635 C.3     1  UNL1        0.1149
     13 N         140.1917  144.6708  158.3982 N.3     1  UNL1       -0.1526
     14 S         140.9683  144.5435  159.6752 S.O2    1  UNL1        0.0634
     15 O         142.2505  144.5579  158.8968 O.2     1  UNL1       -0.1528
     16 O         139.6861  144.5291  160.4535 O.2     1  UNL1       -0.1528
     17 C         141.7449  144.4161  160.9521 C.ar    1  UNL1        0.1222
     18 C         141.2769  145.1250  162.1884 C.ar    1  UNL1        0.0206
     19 C         142.0535  144.9976  163.4654 C.ar    1  UNL1        0.0116
     20 C         143.2981  144.1614  163.5061 C.ar    1  UNL1        0.0685
     21 C         143.7662  143.4525  162.2697 C.ar    1  UNL1        0.0116
     22 C         142.9896  143.5798  160.9928 C.ar    1  UNL1        0.0206
     23 C         144.0747  144.0340  164.7831 C.1     1  UNL1        0.1004
     24 N         144.8513  143.9067  166.0600 N.1     1  UNL1       -0.1908
     25 C         138.9842  137.3636  163.5490 C.3     1  UNL1        0.0769
     26 C         138.9934  137.8690  164.9613 C.3     1  UNL1        0.0437
     27 C         139.5334  139.2349  165.2655 C.ar    1  UNL1       -0.0184
     28 C         138.6230  140.4264  165.2293 C.ar    1  UNL1       -0.0018
     29 C         139.1629  141.7925  165.5335 C.ar    1  UNL1        0.0316
     30 C         140.6133  141.9669  165.8740 C.ar    1  UNL1        0.1674
     31 F         141.1533  143.3328  166.1782 F       1  UNL1       -0.2018
     32 C         141.5238  140.7753  165.9102 C.ar    1  UNL1        0.1671
     33 F         142.9742  140.9497  166.2506 F       1  UNL1       -0.2018
     34 C         140.9838  139.4093  165.6060 C.ar    1  UNL1        0.0277
@<TRIPOS>BOND
     1    12    13    1
     2    13    11    1
     3    11    10    1
     4    10     1    1
     5     1     2    1
     6     2     3    1
     7     3     4    1
     8     4     5    1
     9     5    25    1
    10    25    26    1
    11    26    27    1
    12    27    28   ar
    13    28    29   ar
    14    29    30   ar
    15    30    31    1
    16    30    32   ar
    17    32    33    1
    18    32    34   ar
    19     5     6    1
    20     6     7    1
    21     7     8    1
    22     7     9    1
    23    13    14    1
    24    14    15    2
    25    14    16    2
    26    14    17    1
    27    17    18   ar
    28    18    19   ar
    29    19    20   ar
    30    20    23    1
    31    23    24    3
    32    20    21   ar
    33    21    22   ar
    34     8     1    1
    35    22    17   ar
    36     9     3    1
    37    34    27   ar
@<TRIPOS>MOLECULE
*****
 34 37 0 0 0
SMALL
GASTEIGER

@<TRIPOS>ATOM
      1 N         140.7656  138.5446  159.4548 N.3     1  UNL1       -0.2673
      2 C         141.7696  138.1093  160.4807 C.3     1  UNL1        0.1035
      3 C         141.3384  137.8683  161.8970 C.3     1  UNL1        0.1470
      4 C         140.9072  137.6274  163.3134 C.3     1  UNL1        0.1035
      5 N         139.4720  137.8217  163.7038 N.3     1  UNL1       -0.2682
      6 C         138.4680  138.2570  162.6778 C.3     1  UNL1        0.1035
      7 C         138.8992  138.4980  161.2615 C.3     1  UNL1        0.1470
      8 C         139.3304  138.7389  159.8452 C.3     1  UNL1        0.1035
      9 O         139.9032  138.0627  162.2874 O.3     1  UNL1       -0.3530
     10 C         141.1968  138.7856  158.0384 C.3     1  UNL1        0.0916
     11 C         140.9655  137.7334  156.9947 C.3     1  UNL1        0.1131
     12 C         142.9906  138.0402  155.3963 C.3     1  UNL1        0.1149
     13 N         142.1274  137.1534  156.2439 N.3     1  UNL1       -0.1526
     14 S         142.4260  135.6866  156.3407 S.O2    1  UNL1        0.0634
     15 O         143.1148  135.9135  157.6537 O.2     1  UNL1       -0.1528
     16 O         141.7372  135.4597  155.0276 O.2     1  UNL1       -0.1528
     17 C         142.7246  134.2199  156.4375 C.ar    1  UNL1        0.1222
     18 C         143.8769  133.7425  157.2708 C.ar    1  UNL1        0.0206
     19 C         144.1755  132.2757  157.3676 C.ar    1  UNL1        0.0116
     20 C         143.3218  131.2863  156.6312 C.ar    1  UNL1        0.0685
     21 C         142.1695  131.7637  155.7979 C.ar    1  UNL1        0.0116
     22 C         141.8709  133.2304  155.7011 C.ar    1  UNL1        0.0206
     23 C         143.6204  129.8195  156.7280 C.1     1  UNL1        0.1004
     24 N         143.9190  128.3527  156.8248 N.1     1  UNL1       -0.1908
     25 C         139.0408  137.5808  165.1201 C.3     1  UNL1        0.0769
     26 C         138.2624  138.6308  165.8561 C.3     1  UNL1        0.0437
     27 C         138.9809  139.7581  166.5364 C.ar    1  UNL1       -0.0184
     28 C         139.2015  139.7203  168.0195 C.ar    1  UNL1       -0.0018
     29 C         139.9201  140.8476  168.6999 C.ar    1  UNL1        0.0316
     30 C         140.4180  142.0127  167.8970 C.ar    1  UNL1        0.1674
     31 F         141.1365  143.1401  168.5773 F       1  UNL1       -0.2018
     32 C         140.1973  142.0505  166.4138 C.ar    1  UNL1        0.1671
     33 F         140.6952  143.2156  165.6109 F       1  UNL1       -0.2018
     34 C         139.4788  140.9232  165.7335 C.ar    1  UNL1        0.0277
@<TRIPOS>BOND
     1    12    13    1
     2    13    11    1
     3    11    10    1
     4    10     1    1
     5     1     2    1
     6     2     3    1
     7     3     4    1
     8     4     5    1
     9     5    25    1
    10    25    26    1
    11    26    27    1
    12    27    28   ar
    13    28    29   ar
    14    29    30   ar
    15    30    31    1
    16    30    32   ar
    17    32    33    1
    18    32    34   ar
    19     5     6    1
    20     6     7    1
    21     7     8    1
    22     7     9    1
    23    13    14    1
    24    14    15    2
    25    14    16    2
    26    14    17    1
    27    17    18   ar
    28    18    19   ar
    29    19    20   ar
    30    20    23    1
    31    23    24    3
    32    20    21   ar
    33    21    22   ar
    34     8     1    1
    35    22    17   ar
    36     9     3    1
    37    34    27   ar
