@<TRIPOS>MOLECULE
*****
 34 37 0 0 0
SMALL
GASTEIGER

@<TRIPOS>ATOM
      1 C         142.4068  138.1505  155.9843 C.2     1  UNL1        0.0495
      2 C         142.1379  138.5760  157.3973 C.2     1  UNL1       -0.0397
      3 C         142.8464  137.8981  158.5324 C.3     1  UNL1        0.0223
      4 C         142.5774  138.3236  159.9455 C.3     1  UNL1        0.0079
      5 C         141.5999  139.4268  160.2234 C.3     1  UNL1        0.0388
      6 C         142.2293  138.8449  161.4544 C.3     1  UNL1        0.0037
      7 C         140.8914  140.1046  159.0883 C.3     1  UNL1        0.0089
      8 C         141.1604  139.6792  157.6753 C.3     1  UNL1        0.0223
      9 C         139.9880  141.1536  159.6660 C.3     1  UNL1        0.0201
     10 C         140.1382  141.1239  161.1582 C.3     1  UNL1        0.0978
     11 C         141.1344  140.0568  161.5026 C.3     1  UNL1        0.1801
     12 N         139.4185  142.0066  162.1345 N.3     1  UNL1       -0.2697
     13 C         138.0477  141.6321  162.6148 C.3     1  UNL1        0.0722
     14 C         137.3280  142.5147  163.5911 C.3     1  UNL1        0.0187
     15 C         137.9791  143.7716  164.0870 C.3     1  UNL1        0.0183
     16 C         139.3500  144.1460  163.6067 C.3     1  UNL1        0.0670
     17 N         140.0011  145.4031  164.1028 N.3     1  UNL1       -0.3211
     18 C         140.0696  143.2635  162.6305 C.3     1  UNL1        0.0878
     19 H         139.3749  145.8761  164.7543 H       1  UNL1        0.1189
     20 H         140.1982  146.0182  163.3134 H       1  UNL1        0.1189
     21 C         143.8761  134.5337  155.2700 C.3     1  UNL1        0.1152
     22 N         142.8985  135.6370  155.5480 N.am    1  UNL1       -0.2726
     23 C         141.4352  135.3300  155.6676 C.3     1  UNL1        0.1152
     24 C         143.3843  137.0473  155.7064 C.2     1  UNL1        0.2486
     25 O         144.8478  137.3543  155.5868 O.2     1  UNL1       -0.2699
     26 O         141.5859  139.6848  162.8839 O.3     1  UNL1       -0.4778
     27 C         140.5754  139.3178  163.9299 C.ar    1  UNL1        0.1385
     28 C         140.3317  140.2346  165.0917 C.ar    1  UNL1        0.0376
     29 C         139.3211  139.8675  166.1378 C.ar    1  UNL1        0.0134
     30 C         138.5543  138.5836  166.0219 C.ar    1  UNL1        0.0686
     31 C         138.7980  137.6667  164.8600 C.ar    1  UNL1        0.0134
     32 C         139.8085  138.0338  163.8140 C.ar    1  UNL1        0.0376
     33 C         137.5438  138.2165  167.0679 C.1     1  UNL1        0.1004
     34 N         136.5333  137.8496  168.1139 N.1     1  UNL1       -0.1908
@<TRIPOS>BOND
     1    21    22    1
     2    22    23    1
     3    22    24   am
     4    24    25    2
     5    24     1    1
     6     1     2    2
     7     2     3    1
     8     3     4    1
     9     4     5    1
    10     5     6    1
    11     5     7    1
    12     7     8    1
    13     7     9    1
    14     9    10    1
    15    10    12    1
    16    12    13    1
    17    13    14    1
    18    14    15    1
    19    15    16    1
    20    16    17    1
    21    16    18    1
    22    10    11    1
    23    11    26    1
    24    26    27    1
    25    27    28   ar
    26    28    29   ar
    27    29    30   ar
    28    30    33    1
    29    33    34    3
    30    30    31   ar
    31    31    32   ar
    32     8     2    1
    33    18    12    1
    34    32    27   ar
    35    11     5    1
    36    17    19    1
    37    17    20    1
@<TRIPOS>MOLECULE
*****
 34 37 0 0 0
SMALL
GASTEIGER

@<TRIPOS>ATOM
      1 C         141.7137  138.4022  157.5648 C.2     1  UNL1        0.0495
      2 C         141.7845  138.4352  159.0628 C.2     1  UNL1       -0.0397
      3 C         143.0906  138.1877  159.7576 C.3     1  UNL1        0.0223
      4 C         143.1613  138.2208  161.2555 C.3     1  UNL1        0.0079
      5 C         141.9260  138.5013  162.0587 C.3     1  UNL1        0.0388
      6 C         143.1547  138.2741  162.8886 C.3     1  UNL1        0.0037
      7 C         140.6199  138.7488  161.3639 C.3     1  UNL1        0.0089
      8 C         140.5491  138.7157  159.8659 C.3     1  UNL1        0.0223
      9 C         139.5767  138.9975  162.4128 C.3     1  UNL1        0.0201
     10 C         140.2381  138.9037  163.7557 C.3     1  UNL1        0.0978
     11 C         141.6901  138.5970  163.5369 C.3     1  UNL1        0.1801
     12 N         139.5657  139.0847  165.0844 N.3     1  UNL1       -0.2697
     13 C         139.8832  140.2834  165.9284 C.3     1  UNL1        0.0722
     14 C         139.2108  140.4644  167.2570 C.3     1  UNL1        0.0187
     15 C         138.2210  139.4469  167.7415 C.3     1  UNL1        0.0183
     16 C         137.9036  138.2482  166.8974 C.3     1  UNL1        0.0670
     17 N         136.9137  137.2306  167.3820 N.3     1  UNL1       -0.3211
     18 C         138.5759  138.0671  165.5689 C.3     1  UNL1        0.0878
     19 H         136.5580  137.5107  168.2960 H       1  UNL1        0.1189
     20 H         137.3703  136.3218  167.4587 H       1  UNL1        0.1189
     21 C         144.3759  136.4965  155.3217 C.3     1  UNL1        0.1152
     22 N         143.1405  136.7770  156.1249 N.am    1  UNL1       -0.2726
     23 C         142.0965  135.7130  156.2914 C.3     1  UNL1        0.1152
     24 C         142.9491  138.1216  156.7616 C.2     1  UNL1        0.2486
     25 O         143.9932  139.1857  156.5951 O.2     1  UNL1       -0.2699
     26 O         142.7245  138.4176  164.6082 O.3     1  UNL1       -0.4778
     27 C         142.8097  139.3978  165.7403 C.ar    1  UNL1        0.1385
     28 C         143.0233  140.8551  165.4562 C.ar    1  UNL1        0.0376
     29 C         143.1085  141.8354  166.5885 C.ar    1  UNL1        0.0134
     30 C         142.9801  141.3584  168.0048 C.ar    1  UNL1        0.0686
     31 C         142.7665  139.9011  168.2889 C.ar    1  UNL1        0.0134
     32 C         142.6813  138.9209  167.1567 C.ar    1  UNL1        0.0376
     33 C         143.0653  142.3387  169.1369 C.1     1  UNL1        0.1004
     34 N         143.1505  143.3190  170.2689 N.1     1  UNL1       -0.1908
@<TRIPOS>BOND
     1    21    22    1
     2    22    23    1
     3    22    24   am
     4    24    25    2
     5    24     1    1
     6     1     2    2
     7     2     3    1
     8     3     4    1
     9     4     5    1
    10     5     6    1
    11     5     7    1
    12     7     8    1
    13     7     9    1
    14     9    10    1
    15    10    12    1
    16    12    13    1
    17    13    14    1
    18    14    15    1
    19    15    16    1
    20    16    17    1
    21    16    18    1
    22    10    11    1
    23    11    26    1
    24    26    27    1
    25    27    28   ar
    26    28    29   ar
    27    29    30   ar
    28    30    33    1
    29    33    34    3
    30    30    31   ar
    31    31    32   ar
    32     8     2    1
    33    18    12    1
    34    32    27   ar
    35    11     5    1
    36    17    19    1
    37    17    20    1
@<TRIPOS>MOLECULE
*****
 34 37 0 0 0
SMALL
GASTEIGER

@<TRIPOS>ATOM
      1 C         137.1989  142.1215  156.8991 C.2     1  UNL1        0.0495
      2 C         138.0977  141.6564  158.0062 C.2     1  UNL1       -0.0397
      3 C         138.1147  140.2093  158.4006 C.3     1  UNL1        0.0223
      4 C         139.0135  139.7442  159.5078 C.3     1  UNL1        0.0079
      5 C         139.8954  140.7262  160.2205 C.3     1  UNL1        0.0388
      6 C         140.0197  139.3182  160.7226 C.3     1  UNL1        0.0037
      7 C         139.8784  142.1732  159.8260 C.3     1  UNL1        0.0089
      8 C         138.9796  142.6384  158.7189 C.3     1  UNL1        0.0223
      9 C         140.8510  142.9043  160.7034 C.3     1  UNL1        0.0201
     10 C         141.4690  141.9090  161.6401 C.3     1  UNL1        0.0978
     11 C         140.8784  140.5628  161.3416 C.3     1  UNL1        0.1801
     12 N         142.4972  142.2074  162.6908 N.3     1  UNL1       -0.2697
     13 C         142.0838  142.8410  163.9860 C.3     1  UNL1        0.0722
     14 C         143.1118  143.1395  165.0367 C.3     1  UNL1        0.0187
     15 C         144.5533  142.8042  164.7922 C.3     1  UNL1        0.0183
     16 C         144.9667  142.1706  163.4970 C.3     1  UNL1        0.0670
     17 N         146.4082  141.8353  163.2525 N.3     1  UNL1       -0.3211
     18 C         143.9386  141.8722  162.4463 C.3     1  UNL1        0.0878
     19 H         146.9624  142.1043  164.0654 H       1  UNL1        0.1189
     20 H         146.7405  142.3416  162.4317 H       1  UNL1        0.1189
     21 C         135.6253  139.9053  154.0073 C.3     1  UNL1        0.1152
     22 N         136.5072  140.8873  154.7200 N.am    1  UNL1       -0.2726
     23 C         137.5793  141.6170  153.9664 C.3     1  UNL1        0.1152
     24 C         136.3170  141.1395  156.1864 C.2     1  UNL1        0.2486
     25 O         135.2448  140.4098  156.9400 O.2     1  UNL1       -0.2699
     26 O         141.2122  139.2788  162.0414 O.3     1  UNL1       -0.4778
     27 C         141.5537  139.2873  163.5020 C.ar    1  UNL1        0.1385
     28 C         140.5232  139.7001  164.5108 C.ar    1  UNL1        0.0376
     29 C         140.8648  139.7087  165.9714 C.ar    1  UNL1        0.0134
     30 C         142.2368  139.3044  166.4232 C.ar    1  UNL1        0.0686
     31 C         143.2673  138.8917  165.4144 C.ar    1  UNL1        0.0134
     32 C         142.9258  138.8831  163.9538 C.ar    1  UNL1        0.0376
     33 C         142.5783  139.3130  167.8837 C.1     1  UNL1        0.1004
     34 N         142.9197  139.3217  169.3443 N.1     1  UNL1       -0.1908
@<TRIPOS>BOND
     1    21    22    1
     2    22    23    1
     3    22    24   am
     4    24    25    2
     5    24     1    1
     6     1     2    2
     7     2     3    1
     8     3     4    1
     9     4     5    1
    10     5     6    1
    11     5     7    1
    12     7     8    1
    13     7     9    1
    14     9    10    1
    15    10    12    1
    16    12    13    1
    17    13    14    1
    18    14    15    1
    19    15    16    1
    20    16    17    1
    21    16    18    1
    22    10    11    1
    23    11    26    1
    24    26    27    1
    25    27    28   ar
    26    28    29   ar
    27    29    30   ar
    28    30    33    1
    29    33    34    3
    30    30    31   ar
    31    31    32   ar
    32     8     2    1
    33    18    12    1
    34    32    27   ar
    35    11     5    1
    36    17    19    1
    37    17    20    1
@<TRIPOS>MOLECULE
*****
 34 37 0 0 0
SMALL
GASTEIGER

@<TRIPOS>ATOM
      1 C         140.3481  143.1582  168.5551 C.2     1  UNL1        0.0495
      2 C         140.8946  142.8824  167.1857 C.2     1  UNL1       -0.0397
      3 C         142.1603  142.0930  167.0283 C.3     1  UNL1        0.0223
      4 C         142.7067  141.8171  165.6589 C.3     1  UNL1        0.0079
      5 C         141.9875  142.3307  164.4469 C.3     1  UNL1        0.0388
      6 C         143.2359  141.5599  164.1345 C.3     1  UNL1        0.0037
      7 C         140.7219  143.1201  164.6043 C.3     1  UNL1        0.0089
      8 C         140.1754  143.3960  165.9737 C.3     1  UNL1        0.0223
      9 C         140.2358  143.4946  163.2355 C.3     1  UNL1        0.0201
     10 C         141.2012  142.9367  162.2321 C.3     1  UNL1        0.0978
     11 C         142.2838  142.2173  162.9808 C.3     1  UNL1        0.1801
     12 N         141.1015  143.0739  160.7417 N.3     1  UNL1       -0.2697
     13 C         140.2026  142.1599  159.9629 C.3     1  UNL1        0.0722
     14 C         140.1029  142.2971  158.4725 C.3     1  UNL1        0.0187
     15 C         140.9020  143.3483  157.7610 C.3     1  UNL1        0.0183
     16 C         141.8009  144.2623  158.5399 C.3     1  UNL1        0.0670
     17 N         142.6000  145.3136  157.8283 N.3     1  UNL1       -0.3211
     18 C         141.9006  144.1251  160.0302 C.3     1  UNL1        0.0878
     19 H         142.4115  145.2643  156.8271 H       1  UNL1        0.1189
     20 H         143.5939  145.1563  157.9953 H       1  UNL1        0.1189
     21 C         141.5327  140.7354  171.4666 C.3     1  UNL1        0.1152
     22 N         140.8134  141.2490  170.2546 N.am    1  UNL1       -0.2726
     23 C         139.8404  140.3669  169.5300 C.3     1  UNL1        0.1152
     24 C         141.0673  142.6447  169.7671 C.2     1  UNL1        0.2486
     25 O         142.0404  143.5268  170.4917 O.2     1  UNL1       -0.2699
     26 O         143.4567  141.5089  162.3706 O.3     1  UNL1       -0.4778
     27 C         143.2426  140.5199  161.2634 C.ar    1  UNL1        0.1385
     28 C         142.5486  139.2198  161.5429 C.ar    1  UNL1        0.0376
     29 C         142.3344  138.2307  160.4356 C.ar    1  UNL1        0.0134
     30 C         142.8143  138.5418  159.0489 C.ar    1  UNL1        0.0686
     31 C         143.5083  139.8419  158.7694 C.ar    1  UNL1        0.0134
     32 C         143.7224  140.8309  159.8767 C.ar    1  UNL1        0.0376
     33 C         142.6001  137.5527  157.9417 C.1     1  UNL1        0.1004
     34 N         142.3859  136.5636  156.8346 N.1     1  UNL1       -0.1908
@<TRIPOS>BOND
     1    21    22    1
     2    22    23    1
     3    22    24   am
     4    24    25    2
     5    24     1    1
     6     1     2    2
     7     2     3    1
     8     3     4    1
     9     4     5    1
    10     5     6    1
    11     5     7    1
    12     7     8    1
    13     7     9    1
    14     9    10    1
    15    10    12    1
    16    12    13    1
    17    13    14    1
    18    14    15    1
    19    15    16    1
    20    16    17    1
    21    16    18    1
    22    10    11    1
    23    11    26    1
    24    26    27    1
    25    27    28   ar
    26    28    29   ar
    27    29    30   ar
    28    30    33    1
    29    33    34    3
    30    30    31   ar
    31    31    32   ar
    32     8     2    1
    33    18    12    1
    34    32    27   ar
    35    11     5    1
    36    17    19    1
    37    17    20    1
@<TRIPOS>MOLECULE
*****
 34 37 0 0 0
SMALL
GASTEIGER

@<TRIPOS>ATOM
      1 C         143.0797  142.1528  168.4592 C.2     1  UNL1        0.0495
      2 C         142.4719  142.2945  167.0952 C.2     1  UNL1       -0.0397
      3 C         140.9927  142.4972  166.9505 C.3     1  UNL1        0.0223
      4 C         140.3850  142.6389  165.5865 C.3     1  UNL1        0.0079
      5 C         141.2563  142.5779  164.3671 C.3     1  UNL1        0.0388
      6 C         139.8012  142.7844  164.0674 C.3     1  UNL1        0.0037
      7 C         142.7355  142.3753  164.5118 C.3     1  UNL1        0.0089
      8 C         143.3433  142.2336  165.8758 C.3     1  UNL1        0.0223
      9 C         143.3374  142.3570  163.1379 C.3     1  UNL1        0.0201
     10 C         142.2302  142.5484  162.1442 C.3     1  UNL1        0.0978
     11 C         140.9440  142.6849  162.9039 C.3     1  UNL1        0.1801
     12 N         142.3824  142.5950  160.6526 N.3     1  UNL1       -0.2697
     13 C         142.4819  141.3201  159.8687 C.3     1  UNL1        0.0722
     14 C         142.6341  141.3666  158.3772 C.3     1  UNL1        0.0187
     15 C         142.6867  142.6882  157.6696 C.3     1  UNL1        0.0183
     16 C         142.5872  143.9632  158.4536 C.3     1  UNL1        0.0670
     17 N         142.6399  145.2848  157.7459 N.3     1  UNL1       -0.3211
     18 C         142.4351  143.9166  159.9451 C.3     1  UNL1        0.0878
     19 H         142.7450  145.1296  156.7433 H       1  UNL1        0.1189
     20 H         143.4337  145.8241  158.0916 H       1  UNL1        0.1189
     21 C         140.7470  141.0161  171.4620 C.3     1  UNL1        0.1152
     22 N         141.6185  140.9552  170.2425 N.am    1  UNL1       -0.2726
     23 C         141.9000  139.6357  169.5871 C.3     1  UNL1        0.1152
     24 C         142.2083  142.2137  169.6786 C.2     1  UNL1        0.2486
     25 O         141.9267  143.5333  170.3340 O.2     1  UNL1       -0.2699
     26 O         139.5843  142.8920  162.3055 O.3     1  UNL1       -0.4778
     27 C         139.2298  142.2362  161.0039 C.ar    1  UNL1        0.1385
     28 C         139.0263  143.0709  159.7744 C.ar    1  UNL1        0.0376
     29 C         138.6718  142.4149  158.4727 C.ar    1  UNL1        0.0134
     30 C         138.5208  140.9243  158.4008 C.ar    1  UNL1        0.0686
     31 C         138.7242  140.0896  159.6303 C.ar    1  UNL1        0.0134
     32 C         139.0787  140.7455  160.9319 C.ar    1  UNL1        0.0376
     33 C         138.1663  140.2684  157.0992 C.1     1  UNL1        0.1004
     34 N         137.8117  139.6126  155.7976 N.1     1  UNL1       -0.1908
@<TRIPOS>BOND
     1    21    22    1
     2    22    23    1
     3    22    24   am
     4    24    25    2
     5    24     1    1
     6     1     2    2
     7     2     3    1
     8     3     4    1
     9     4     5    1
    10     5     6    1
    11     5     7    1
    12     7     8    1
    13     7     9    1
    14     9    10    1
    15    10    12    1
    16    12    13    1
    17    13    14    1
    18    14    15    1
    19    15    16    1
    20    16    17    1
    21    16    18    1
    22    10    11    1
    23    11    26    1
    24    26    27    1
    25    27    28   ar
    26    28    29   ar
    27    29    30   ar
    28    30    33    1
    29    33    34    3
    30    30    31   ar
    31    31    32   ar
    32     8     2    1
    33    18    12    1
    34    32    27   ar
    35    11     5    1
    36    17    19    1
    37    17    20    1
@<TRIPOS>MOLECULE
*****
 34 37 0 0 0
SMALL
GASTEIGER

@<TRIPOS>ATOM
      1 C         145.5004  140.8689  156.2642 C.2     1  UNL1        0.0495
      2 C         144.7383  141.2268  157.5056 C.2     1  UNL1       -0.0397
      3 C         144.9858  142.5411  158.1848 C.3     1  UNL1        0.0223
      4 C         144.2237  142.8991  159.4262 C.3     1  UNL1        0.0079
      5 C         143.2141  141.9428  159.9884 C.3     1  UNL1        0.0388
      6 C         143.3533  143.2138  160.7727 C.3     1  UNL1        0.0037
      7 C         142.9666  140.6285  159.3092 C.3     1  UNL1        0.0089
      8 C         143.7287  140.2705  158.0678 C.3     1  UNL1        0.0223
      9 C         141.9172  139.8938  160.0896 C.3     1  UNL1        0.0201
     10 C         141.5162  140.7540  161.2511 C.3     1  UNL1        0.0978
     11 C         142.3177  142.0204  161.1886 C.3     1  UNL1        0.1801
     12 N         140.4932  140.4086  162.2925 N.3     1  UNL1       -0.2697
     13 C         140.8533  139.4891  163.4216 C.3     1  UNL1        0.0722
     14 C         139.8305  139.1437  164.4629 C.3     1  UNL1        0.0187
     15 C         138.4475  139.7177  164.3751 C.3     1  UNL1        0.0183
     16 C         138.0873  140.6371  163.2459 C.3     1  UNL1        0.0670
     17 N         136.7042  141.2111  163.1581 N.3     1  UNL1       -0.3211
     18 C         139.1102  140.9826  162.2046 C.3     1  UNL1        0.0878
     19 H         136.1454  140.8730  163.9416 H       1  UNL1        0.1189
     20 H         136.2709  140.9214  162.2814 H       1  UNL1        0.1189
     21 C         147.0964  143.8184  154.1421 C.3     1  UNL1        0.1152
     22 N         146.0866  142.8620  154.7043 N.am    1  UNL1       -0.2726
     23 C         144.6536  142.9426  154.2686 C.3     1  UNL1        0.1152
     24 C         146.5101  141.8252  155.7021 C.2     1  UNL1        0.2486
     25 O         147.9432  141.7446  156.1377 O.2     1  UNL1       -0.2699
     26 O         142.2370  143.1636  162.1563 O.3     1  UNL1       -0.4778
     27 C         142.0594  142.8951  163.6213 C.ar    1  UNL1        0.1385
     28 C         143.1288  142.1737  164.3867 C.ar    1  UNL1        0.0376
     29 C         142.9511  141.9052  165.8518 C.ar    1  UNL1        0.0134
     30 C         141.7039  142.3581  166.5514 C.ar    1  UNL1        0.0686
     31 C         140.6345  143.0795  165.7860 C.ar    1  UNL1        0.0134
     32 C         140.8122  143.3479  164.3210 C.ar    1  UNL1        0.0376
     33 C         141.5263  142.0896  168.0164 C.1     1  UNL1        0.1004
     34 N         141.3486  141.8210  169.4814 N.1     1  UNL1       -0.1908
@<TRIPOS>BOND
     1    21    22    1
     2    22    23    1
     3    22    24   am
     4    24    25    2
     5    24     1    1
     6     1     2    2
     7     2     3    1
     8     3     4    1
     9     4     5    1
    10     5     6    1
    11     5     7    1
    12     7     8    1
    13     7     9    1
    14     9    10    1
    15    10    12    1
    16    12    13    1
    17    13    14    1
    18    14    15    1
    19    15    16    1
    20    16    17    1
    21    16    18    1
    22    10    11    1
    23    11    26    1
    24    26    27    1
    25    27    28   ar
    26    28    29   ar
    27    29    30   ar
    28    30    33    1
    29    33    34    3
    30    30    31   ar
    31    31    32   ar
    32     8     2    1
    33    18    12    1
    34    32    27   ar
    35    11     5    1
    36    17    19    1
    37    17    20    1
@<TRIPOS>MOLECULE
*****
 34 37 0 0 0
SMALL
GASTEIGER

@<TRIPOS>ATOM
      1 C         140.2634  144.2951  156.5815 C.2     1  UNL1        0.0495
      2 C         140.2568  144.0985  158.0686 C.2     1  UNL1       -0.0397
      3 C         140.5193  145.2606  158.9799 C.3     1  UNL1        0.0223
      4 C         140.5127  145.0639  160.4670 C.3     1  UNL1        0.0079
      5 C         140.2436  143.7052  161.0427 C.3     1  UNL1        0.0388
      6 C         140.4880  144.7671  162.0735 C.3     1  UNL1        0.0037
      7 C         139.9810  142.5432  160.1313 C.3     1  UNL1        0.0089
      8 C         139.9877  142.7398  158.6443 C.3     1  UNL1        0.0223
      9 C         139.7484  141.3300  160.9823 C.3     1  UNL1        0.0201
     10 C         139.8672  141.7423  162.4196 C.3     1  UNL1        0.0978
     11 C         140.1732  143.2103  162.4569 C.3     1  UNL1        0.1801
     12 N         139.7080  140.8443  163.6106 N.3     1  UNL1       -0.2697
     13 C         138.3704  140.7115  164.2762 C.3     1  UNL1        0.0722
     14 C         138.2111  139.8136  165.4671 C.3     1  UNL1        0.0187
     15 C         139.3895  139.0484  165.9924 C.3     1  UNL1        0.0183
     16 C         140.7271  139.1812  165.3267 C.3     1  UNL1        0.0670
     17 N         141.9055  138.4159  165.8520 N.3     1  UNL1       -0.3211
     18 C         140.8864  140.0791  164.1358 C.3     1  UNL1        0.0878
     19 H         141.6185  137.8610  166.6583 H       1  UNL1        0.1189
     20 H         142.6375  139.0688  166.1318 H       1  UNL1        0.1189
     21 C         139.7040  147.7648  154.7381 C.3     1  UNL1        0.1152
     22 N         139.4348  146.4061  155.3138 N.am    1  UNL1       -0.2726
     23 C         138.0678  145.7996  155.1974 C.3     1  UNL1        0.1152
     24 C         140.5326  145.6538  156.0059 C.2     1  UNL1        0.2486
     25 O         141.8996  146.2603  156.1222 O.2     1  UNL1       -0.2699
     26 O         140.3737  144.0380  163.6916 O.3     1  UNL1       -0.4778
     27 C         140.9755  143.4206  164.9190 C.ar    1  UNL1        0.1385
     28 C         142.4257  143.0375  164.9319 C.ar    1  UNL1        0.0376
     29 C         143.0275  142.4200  166.1594 C.ar    1  UNL1        0.0134
     30 C         142.1790  142.1856  167.3740 C.ar    1  UNL1        0.0686
     31 C         140.7288  142.5687  167.3611 C.ar    1  UNL1        0.0134
     32 C         140.1271  143.1861  166.1337 C.ar    1  UNL1        0.0376
     33 C         142.7808  141.5681  168.6014 C.1     1  UNL1        0.1004
     34 N         143.3827  140.9507  169.8288 N.1     1  UNL1       -0.1908
@<TRIPOS>BOND
     1    21    22    1
     2    22    23    1
     3    22    24   am
     4    24    25    2
     5    24     1    1
     6     1     2    2
     7     2     3    1
     8     3     4    1
     9     4     5    1
    10     5     6    1
    11     5     7    1
    12     7     8    1
    13     7     9    1
    14     9    10    1
    15    10    12    1
    16    12    13    1
    17    13    14    1
    18    14    15    1
    19    15    16    1
    20    16    17    1
    21    16    18    1
    22    10    11    1
    23    11    26    1
    24    26    27    1
    25    27    28   ar
    26    28    29   ar
    27    29    30   ar
    28    30    33    1
    29    33    34    3
    30    30    31   ar
    31    31    32   ar
    32     8     2    1
    33    18    12    1
    34    32    27   ar
    35    11     5    1
    36    17    19    1
    37    17    20    1
@<TRIPOS>MOLECULE
*****
 34 37 0 0 0
SMALL
GASTEIGER

@<TRIPOS>ATOM
      1 C         139.2354  139.8828  168.7049 C.2     1  UNL1        0.0495
      2 C         139.5716  140.2431  167.2882 C.2     1  UNL1       -0.0397
      3 C         140.4292  141.4399  167.0020 C.3     1  UNL1        0.0223
      4 C         140.7654  141.8002  165.5852 C.3     1  UNL1        0.0079
      5 C         140.2439  140.9637  164.4547 C.3     1  UNL1        0.0388
      6 C         141.0857  142.1252  164.0163 C.3     1  UNL1        0.0037
      7 C         139.3863  139.7668  164.7409 C.3     1  UNL1        0.0089
      8 C         139.0501  139.4065  166.1576 C.3     1  UNL1        0.0223
      9 C         139.0195  139.1353  163.4306 C.3     1  UNL1        0.0201
     10 C         139.6504  139.9420  162.3346 C.3     1  UNL1        0.0978
     11 C         140.4072  141.0720  162.9675 C.3     1  UNL1        0.1801
     12 N         139.5435  139.6670  160.8638 N.3     1  UNL1       -0.2697
     13 C         140.5013  138.7179  160.2067 C.3     1  UNL1        0.0722
     14 C         140.3944  138.4429  158.7361 C.3     1  UNL1        0.0187
     15 C         139.3297  139.1170  157.9225 C.3     1  UNL1        0.0183
     16 C         138.3719  140.0662  158.5796 C.3     1  UNL1        0.0670
     17 N         137.3071  140.7403  157.7660 N.3     1  UNL1       -0.3211
     18 C         138.4788  140.3412  160.0503 C.3     1  UNL1        0.0878
     19 H         137.3808  140.4400  156.7940 H       1  UNL1        0.1189
     20 H         137.4277  141.7518  157.8194 H       1  UNL1        0.1189
     21 C         141.6727  141.3426  171.4759 C.3     1  UNL1        0.1152
     22 N         141.1513  140.5060  170.3452 N.am    1  UNL1       -0.2726
     23 C         142.0244  139.4561  169.7244 C.3     1  UNL1        0.1152
     24 C         139.7568  140.7193  169.8355 C.2     1  UNL1        0.2486
     25 O         138.8837  141.7693  170.4563 O.2     1  UNL1       -0.2699
     26 O         141.1898  142.1253  162.2409 O.3     1  UNL1       -0.4778
     27 C         142.0234  141.7530  161.0508 C.ar    1  UNL1        0.1385
     28 C         143.2044  140.8434  161.2172 C.ar    1  UNL1        0.0376
     29 C         144.0381  140.4712  160.0270 C.ar    1  UNL1        0.0134
     30 C         143.6906  141.0086  158.6703 C.ar    1  UNL1        0.0686
     31 C         142.5096  141.9182  158.5039 C.ar    1  UNL1        0.0134
     32 C         141.6760  142.2904  159.6941 C.ar    1  UNL1        0.0376
     33 C         144.5243  140.6363  157.4802 C.1     1  UNL1        0.1004
     34 N         145.3578  140.2640  156.2900 N.1     1  UNL1       -0.1908
@<TRIPOS>BOND
     1    21    22    1
     2    22    23    1
     3    22    24   am
     4    24    25    2
     5    24     1    1
     6     1     2    2
     7     2     3    1
     8     3     4    1
     9     4     5    1
    10     5     6    1
    11     5     7    1
    12     7     8    1
    13     7     9    1
    14     9    10    1
    15    10    12    1
    16    12    13    1
    17    13    14    1
    18    14    15    1
    19    15    16    1
    20    16    17    1
    21    16    18    1
    22    10    11    1
    23    11    26    1
    24    26    27    1
    25    27    28   ar
    26    28    29   ar
    27    29    30   ar
    28    30    33    1
    29    33    34    3
    30    30    31   ar
    31    31    32   ar
    32     8     2    1
    33    18    12    1
    34    32    27   ar
    35    11     5    1
    36    17    19    1
    37    17    20    1
@<TRIPOS>MOLECULE
*****
 34 37 0 0 0
SMALL
GASTEIGER

@<TRIPOS>ATOM
      1 C         138.3194  139.6407  155.8232 C.2     1  UNL1        0.0495
      2 C         138.8413  140.0753  157.1607 C.2     1  UNL1       -0.0397
      3 C         138.1196  141.1351  157.9391 C.3     1  UNL1        0.0223
      4 C         138.6415  141.5696  159.2765 C.3     1  UNL1        0.0079
      5 C         139.8851  140.9444  159.8356 C.3     1  UNL1        0.0388
      6 C         139.2739  141.9869  160.7242 C.3     1  UNL1        0.0037
      7 C         140.6068  139.8846  159.0572 C.3     1  UNL1        0.0089
      8 C         140.0849  139.4500  157.7197 C.3     1  UNL1        0.0223
      9 C         141.7993  139.4523  159.8580 C.3     1  UNL1        0.0201
     10 C         141.8145  140.2450  161.1313 C.3     1  UNL1        0.0978
     11 C         140.6315  141.1672  161.1174 C.3     1  UNL1        0.1801
     12 N         142.8339  140.1349  162.2263 N.3     1  UNL1       -0.2697
     13 C         142.6445  139.1365  163.3296 C.3     1  UNL1        0.0722
     14 C         143.6638  139.0264  164.4245 C.3     1  UNL1        0.0187
     15 C         144.8723  139.9147  164.4162 C.3     1  UNL1        0.0183
     16 C         145.0617  140.9132  163.3129 C.3     1  UNL1        0.0670
     17 N         146.2704  141.8015  163.3046 N.3     1  UNL1       -0.3211
     18 C         144.0424  141.0233  162.2180 C.3     1  UNL1        0.0878
     19 H         146.8515  141.5926  164.1164 H       1  UNL1        0.1189
     20 H         145.9754  142.7773  163.3398 H       1  UNL1        0.1189
     21 C         135.9330  142.0902  153.8094 C.3     1  UNL1        0.1152
     22 N         137.1767  141.4649  154.3685 N.am    1  UNL1       -0.2726
     23 C         138.5211  142.0387  154.0319 C.3     1  UNL1        0.1152
     24 C         137.0758  140.2659  155.2642 C.2     1  UNL1        0.2486
     25 O         135.7313  139.6922  155.6008 O.2     1  UNL1       -0.2699
     26 O         140.2601  142.1411  162.1961 O.3     1  UNL1       -0.4778
     27 C         140.1256  141.6736  163.6150 C.ar    1  UNL1        0.1385
     28 C         139.1080  140.6294  163.9673 C.ar    1  UNL1        0.0376
     29 C         138.9736  140.1619  165.3863 C.ar    1  UNL1        0.0134
     30 C         139.8567  140.7386  166.4529 C.ar    1  UNL1        0.0686
     31 C         140.8743  141.7827  166.1005 C.ar    1  UNL1        0.0134
     32 C         141.0087  142.2502  164.6816 C.ar    1  UNL1        0.0376
     33 C         139.7222  140.2710  167.8718 C.1     1  UNL1        0.1004
     34 N         139.5878  139.8035  169.2907 N.1     1  UNL1       -0.1908
@<TRIPOS>BOND
     1    21    22    1
     2    22    23    1
     3    22    24   am
     4    24    25    2
     5    24     1    1
     6     1     2    2
     7     2     3    1
     8     3     4    1
     9     4     5    1
    10     5     6    1
    11     5     7    1
    12     7     8    1
    13     7     9    1
    14     9    10    1
    15    10    12    1
    16    12    13    1
    17    13    14    1
    18    14    15    1
    19    15    16    1
    20    16    17    1
    21    16    18    1
    22    10    11    1
    23    11    26    1
    24    26    27    1
    25    27    28   ar
    26    28    29   ar
    27    29    30   ar
    28    30    33    1
    29    33    34    3
    30    30    31   ar
    31    31    32   ar
    32     8     2    1
    33    18    12    1
    34    32    27   ar
    35    11     5    1
    36    17    19    1
    37    17    20    1
