@<TRIPOS>MOLECULE
*****
 37 42 0 0 0
SMALL
GASTEIGER

@<TRIPOS>ATOM
      1 C         142.5301  142.5138  165.2815 C.ar    1  UNL1        0.1188
      2 C         143.4955  142.7336  166.4084 C.ar    1  UNL1        0.0224
      3 C         143.1851  142.2021  167.7762 C.ar    1  UNL1        0.0055
      4 C         141.9093  141.4509  168.0173 C.ar    1  UNL1        0.0486
      5 C         141.5990  140.9194  169.3852 C.ar    1  UNL1        0.1688
      6 F         142.5644  141.1392  170.5120 F       1  UNL1       -0.2017
      7 C         140.3233  140.1681  169.6262 C.ar    1  UNL1        0.1687
      8 F         140.0128  139.6366  170.9941 F       1  UNL1       -0.2018
      9 C         139.3579  139.9483  168.4994 C.ar    1  UNL1        0.0478
     10 C         139.6683  140.4798  167.1315 C.ar    1  UNL1        0.0650
     11 C         140.9440  141.2311  166.8904 C.ar    1  UNL1        0.0967
     12 N         141.2545  141.7626  165.5225 N.ar    1  UNL1       -0.2409
     13 C         138.5612  142.6681  158.5042 C.3     1  UNL1        0.1124
     14 N         139.9376  143.2333  158.6941 N.pl3   1  UNL1       -0.2987
     15 C         140.6472  143.8825  157.5430 C.3     1  UNL1        0.1387
     16 C         142.0236  144.4477  157.7329 C.3     1  UNL1        0.2269
     17 O         142.6904  144.3638  159.0739 O.3     1  UNL1       -0.4692
     18 C         141.9808  143.7147  160.2250 C.ar    1  UNL1        0.1907
     19 C         140.6044  143.1495  160.0351 C.ar    1  UNL1        0.1067
     20 C         139.8948  142.5003  161.1863 C.ar    1  UNL1        0.1382
     21 N         140.5615  142.4164  162.5273 N.ar    1  UNL1       -0.1592
     22 N         141.9379  142.9817  162.7172 N.ar    1  UNL1       -0.1869
     23 C         142.8405  143.0454  163.9135 C.ar    1  UNL1        0.2041
     24 N         144.1080  143.7339  163.5018 N.ar    1  UNL1       -0.1253
     25 N         143.9887  144.0957  162.0510 N.ar    1  UNL1       -0.1237
     26 C         142.6475  143.6308  161.5661 C.ar    1  UNL1        0.2218
     27 N         138.7029  140.2600  166.0045 N.pl3   1  UNL1       -0.3293
     28 H         138.1471  141.0051  165.6802 H       1  UNL1        0.1469
     29 C         138.5846  138.9052  165.3719 C.3     1  UNL1        0.1201
     30 C         139.1233  138.6724  163.9914 C.3     1  UNL1        0.1543
     31 F         138.0283  139.6497  163.6823 F       1  UNL1       -0.2382
     32 C         140.0313  137.7759  164.7800 C.3     1  UNL1        0.0514
     33 C         141.0977  136.9860  164.0807 C.3     1  UNL1        0.0714
     34 N         141.2561  137.0927  162.5929 N.3     1  UNL1       -0.2973
     35 C         140.3481  137.9892  161.8044 C.3     1  UNL1        0.0714
     36 C         139.2817  138.7791  162.5036 C.3     1  UNL1        0.0514
     37 H         141.1406  136.1519  162.2163 H       1  UNL1        0.1233
@<TRIPOS>BOND
     1    13    14    1
     2    14    15    1
     3    15    16    1
     4    16    17    1
     5    17    18    1
     6    18    19   ar
     7    19    20   ar
     8    20    21   ar
     9    21    22   ar
    10    22    23   ar
    11    23     1    1
    12     1     2   ar
    13     2     3   ar
    14     3     4   ar
    15     4     5   ar
    16     5     6    1
    17     5     7   ar
    18     7     8    1
    19     7     9   ar
    20     9    10   ar
    21    10    27    1
    22    27    29    1
    23    29    30    1
    24    30    31    1
    25    30    32    1
    26    32    33    1
    27    33    34    1
    28    34    35    1
    29    35    36    1
    30    10    11   ar
    31    11    12   ar
    32    23    24   ar
    33    24    25   ar
    34    25    26   ar
    35    19    14    1
    36    26    22   ar
    37    26    18   ar
    38    12     1   ar
    39    11     4   ar
    40    36    30    1
    41    27    28    1
    42    34    37    1
@<TRIPOS>MOLECULE
*****
 37 42 0 0 0
SMALL
GASTEIGER

@<TRIPOS>ATOM
      1 C         139.2996  139.4578  164.8746 C.ar    1  UNL1        0.1188
      2 C         138.2409  139.1319  165.8861 C.ar    1  UNL1        0.0224
      3 C         138.4831  139.4075  167.3405 C.ar    1  UNL1        0.0055
      4 C         139.7839  140.0089  167.7835 C.ar    1  UNL1        0.0486
      5 C         140.0261  140.2845  169.2379 C.ar    1  UNL1        0.1688
      6 F         138.9674  139.9586  170.2494 F       1  UNL1       -0.2017
      7 C         141.3269  140.8858  169.6809 C.ar    1  UNL1        0.1687
      8 F         141.5691  141.1614  171.1353 F       1  UNL1       -0.2018
      9 C         142.3855  141.2117  168.6694 C.ar    1  UNL1        0.0478
     10 C         142.1434  140.9361  167.2150 C.ar    1  UNL1        0.0650
     11 C         140.8426  140.3347  166.7720 C.ar    1  UNL1        0.0967
     12 N         140.6003  140.0591  165.3175 N.ar    1  UNL1       -0.2409
     13 C         139.7523  143.8569  158.3823 C.3     1  UNL1        0.1124
     14 N         139.3600  142.4093  158.4002 N.pl3   1  UNL1       -0.2987
     15 C         139.0216  141.7080  157.1182 C.3     1  UNL1        0.1387
     16 C         138.6293  140.2603  157.1362 C.3     1  UNL1        0.2269
     17 O         138.5753  139.5140  158.4361 O.3     1  UNL1       -0.4692
     18 C         138.9136  140.2153  159.7182 C.ar    1  UNL1        0.1907
     19 C         139.3060  141.6629  159.7002 C.ar    1  UNL1        0.1067
     20 C         139.6443  142.3642  160.9823 C.ar    1  UNL1        0.1382
     21 N         139.5903  141.6179  162.2823 N.ar    1  UNL1       -0.1592
     22 N         139.1979  140.1702  162.3003 N.ar    1  UNL1       -0.1869
     23 C         139.0574  139.1822  163.4201 C.ar    1  UNL1        0.2041
     24 N         138.6322  137.8703  162.8302 N.ar    1  UNL1       -0.1253
     25 N         138.5100  138.0475  161.3457 N.ar    1  UNL1       -0.1237
     26 C         138.8596  139.4689  161.0182 C.ar    1  UNL1        0.2218
     27 N         143.2020  141.2619  166.2034 N.pl3   1  UNL1       -0.3293
     28 H         143.7388  140.5404  165.8028 H       1  UNL1        0.1469
     29 C         143.4428  142.6871  165.8023 C.3     1  UNL1        0.1201
     30 C         143.7316  143.0245  164.3696 C.3     1  UNL1        0.1543
     31 F         142.5854  143.9562  164.6307 F       1  UNL1       -0.2382
     32 C         144.7774  141.9756  164.6061 C.3     1  UNL1        0.0514
     33 C         145.7140  141.5876  163.5005 C.3     1  UNL1        0.0714
     34 N         145.6047  142.2486  162.1585 N.3     1  UNL1       -0.2973
     35 C         144.5589  143.2976  161.9219 C.3     1  UNL1        0.0714
     36 C         143.6223  143.6855  163.0275 C.3     1  UNL1        0.0514
     37 H         145.4375  141.5075  161.4779 H       1  UNL1        0.1233
@<TRIPOS>BOND
     1    13    14    1
     2    14    15    1
     3    15    16    1
     4    16    17    1
     5    17    18    1
     6    18    19   ar
     7    19    20   ar
     8    20    21   ar
     9    21    22   ar
    10    22    23   ar
    11    23     1    1
    12     1     2   ar
    13     2     3   ar
    14     3     4   ar
    15     4     5   ar
    16     5     6    1
    17     5     7   ar
    18     7     8    1
    19     7     9   ar
    20     9    10   ar
    21    10    27    1
    22    27    29    1
    23    29    30    1
    24    30    31    1
    25    30    32    1
    26    32    33    1
    27    33    34    1
    28    34    35    1
    29    35    36    1
    30    10    11   ar
    31    11    12   ar
    32    23    24   ar
    33    24    25   ar
    34    25    26   ar
    35    19    14    1
    36    26    22   ar
    37    26    18   ar
    38    12     1   ar
    39    11     4   ar
    40    36    30    1
    41    27    28    1
    42    34    37    1
@<TRIPOS>MOLECULE
*****
 37 42 0 0 0
SMALL
GASTEIGER

@<TRIPOS>ATOM
      1 C         138.8001  139.5452  163.8858 C.ar    1  UNL1        0.1188
      2 C         137.7005  140.2542  163.1522 C.ar    1  UNL1        0.0224
      3 C         137.7258  140.3302  161.6544 C.ar    1  UNL1        0.0055
      4 C         138.8506  139.6972  160.8901 C.ar    1  UNL1        0.0486
      5 C         138.8757  139.7733  159.3923 C.ar    1  UNL1        0.1688
      6 F         137.7761  140.4823  158.6587 F       1  UNL1       -0.2017
      7 C         140.0005  139.1403  158.6280 C.ar    1  UNL1        0.1687
      8 F         140.0258  139.2163  157.1302 F       1  UNL1       -0.2018
      9 C         141.1002  138.4313  159.3615 C.ar    1  UNL1        0.0478
     10 C         141.0750  138.3553  160.8594 C.ar    1  UNL1        0.0650
     11 C         139.9502  138.9882  161.6237 C.ar    1  UNL1        0.0967
     12 N         139.9249  138.9122  163.1216 N.ar    1  UNL1       -0.2409
     13 C         143.5041  142.3288  169.5279 C.3     1  UNL1        0.1124
     14 N         142.2629  141.5247  169.7785 N.pl3   1  UNL1       -0.2987
     15 C         141.8485  141.2033  171.1838 C.3     1  UNL1        0.1387
     16 C         140.6072  140.3993  171.4345 C.3     1  UNL1        0.2269
     17 O         139.7804  139.9165  170.2798 O.3     1  UNL1       -0.4692
     18 C         140.1948  140.2379  168.8745 C.ar    1  UNL1        0.1907
     19 C         141.4361  141.0419  168.6238 C.ar    1  UNL1        0.1067
     20 C         141.8505  141.3633  167.2184 C.ar    1  UNL1        0.1382
     21 N         141.0237  140.8805  166.0638 N.ar    1  UNL1       -0.1592
     22 N         139.7824  140.0765  166.3144 N.ar    1  UNL1       -0.1869
     23 C         138.7750  139.4692  165.3837 C.ar    1  UNL1        0.2041
     24 N         137.7379  138.7725  166.2139 N.ar    1  UNL1       -0.1253
     25 N         138.1045  138.9492  167.6576 N.ar    1  UNL1       -0.1237
     26 C         139.3680  139.7551  167.7197 C.ar    1  UNL1        0.2218
     27 N         142.1746  137.6462  161.5930 N.pl3   1  UNL1       -0.3293
     28 H         142.0114  136.7585  161.9862 H       1  UNL1        0.1469
     29 C         143.5228  138.2898  161.7275 C.3     1  UNL1        0.1201
     30 C         143.7952  139.2298  162.8643 C.3     1  UNL1        0.1543
     31 F         143.2093  138.0726  163.6178 F       1  UNL1       -0.2382
     32 C         144.2864  140.0605  161.7160 C.3     1  UNL1        0.0514
     33 C         144.8466  141.4293  161.9663 C.3     1  UNL1        0.0714
     34 N         144.9154  141.9673  163.3647 N.3     1  UNL1       -0.2973
     35 C         144.4242  141.1367  164.5130 C.3     1  UNL1        0.0714
     36 C         143.8640  139.7678  164.2628 C.3     1  UNL1        0.0514
     37 H         144.3747  142.8322  163.3744 H       1  UNL1        0.1233
@<TRIPOS>BOND
     1    13    14    1
     2    14    15    1
     3    15    16    1
     4    16    17    1
     5    17    18    1
     6    18    19   ar
     7    19    20   ar
     8    20    21   ar
     9    21    22   ar
    10    22    23   ar
    11    23     1    1
    12     1     2   ar
    13     2     3   ar
    14     3     4   ar
    15     4     5   ar
    16     5     6    1
    17     5     7   ar
    18     7     8    1
    19     7     9   ar
    20     9    10   ar
    21    10    27    1
    22    27    29    1
    23    29    30    1
    24    30    31    1
    25    30    32    1
    26    32    33    1
    27    33    34    1
    28    34    35    1
    29    35    36    1
    30    10    11   ar
    31    11    12   ar
    32    23    24   ar
    33    24    25   ar
    34    25    26   ar
    35    19    14    1
    36    26    22   ar
    37    26    18   ar
    38    12     1   ar
    39    11     4   ar
    40    36    30    1
    41    27    28    1
    42    34    37    1
@<TRIPOS>MOLECULE
*****
 37 42 0 0 0
SMALL
GASTEIGER

@<TRIPOS>ATOM
      1 C         141.1452  138.4468  163.1655 C.ar    1  UNL1        0.1188
      2 C         139.8442  137.7218  163.3439 C.ar    1  UNL1        0.0224
      3 C         139.0469  137.9101  164.6004 C.ar    1  UNL1        0.0055
      4 C         139.5505  138.8234  165.6785 C.ar    1  UNL1        0.0486
      5 C         138.7532  139.0117  166.9350 C.ar    1  UNL1        0.1688
      6 F         137.4522  138.2866  167.1134 F       1  UNL1       -0.2017
      7 C         139.2568  139.9250  168.0130 C.ar    1  UNL1        0.1687
      8 F         138.4595  140.1133  169.2695 F       1  UNL1       -0.2018
      9 C         140.5577  140.6500  167.8346 C.ar    1  UNL1        0.0478
     10 C         141.3551  140.4618  166.5782 C.ar    1  UNL1        0.0650
     11 C         140.8515  139.5485  165.5001 C.ar    1  UNL1        0.0967
     12 N         141.6488  139.3601  164.2435 N.ar    1  UNL1       -0.2409
     13 C         139.2974  138.4419  155.5305 C.3     1  UNL1        0.1124
     14 N         140.6813  138.2289  156.0683 N.pl3   1  UNL1       -0.2987
     15 C         141.8245  137.9949  155.1258 C.3     1  UNL1        0.1387
     16 C         143.2085  137.7819  155.6637 C.3     1  UNL1        0.2269
     17 O         143.4493  137.8028  157.1440 O.3     1  UNL1       -0.4692
     18 C         142.3061  138.0368  158.0865 C.ar    1  UNL1        0.1907
     19 C         140.9221  138.2498  157.5487 C.ar    1  UNL1        0.1067
     20 C         139.7790  138.4838  158.4913 C.ar    1  UNL1        0.1382
     21 N         140.0198  138.5048  159.9717 N.ar    1  UNL1       -0.1592
     22 N         141.4037  138.2917  160.5095 N.ar    1  UNL1       -0.1869
     23 C         141.9426  138.2586  161.9090 C.ar    1  UNL1        0.2041
     24 N         143.4188  138.0041  161.8313 N.ar    1  UNL1       -0.1253
     25 N         143.7923  137.8800  160.3839 N.ar    1  UNL1       -0.1237
     26 C         142.5469  138.0577  159.5670 C.ar    1  UNL1        0.2218
     27 N         142.6561  141.1868  166.3997 N.pl3   1  UNL1       -0.3293
     28 H         143.5028  140.7446  166.6381 H       1  UNL1        0.1469
     29 C         142.6669  142.5855  165.8579 C.3     1  UNL1        0.1201
     30 C         143.4262  142.8976  164.6025 C.3     1  UNL1        0.1543
     31 F         144.2248  141.7324  165.1070 F       1  UNL1       -0.2382
     32 C         142.3640  143.9545  164.5341 C.3     1  UNL1        0.0514
     33 C         142.3384  144.9188  163.3854 C.3     1  UNL1        0.0714
     34 N         143.3751  144.8263  162.3052 N.3     1  UNL1       -0.2973
     35 C         144.4373  143.7694  162.3737 C.3     1  UNL1        0.0714
     36 C         144.4629  142.8051  163.5223 C.3     1  UNL1        0.0514
     37 H         143.8557  145.7256  162.2805 H       1  UNL1        0.1233
@<TRIPOS>BOND
     1    13    14    1
     2    14    15    1
     3    15    16    1
     4    16    17    1
     5    17    18    1
     6    18    19   ar
     7    19    20   ar
     8    20    21   ar
     9    21    22   ar
    10    22    23   ar
    11    23     1    1
    12     1     2   ar
    13     2     3   ar
    14     3     4   ar
    15     4     5   ar
    16     5     6    1
    17     5     7   ar
    18     7     8    1
    19     7     9   ar
    20     9    10   ar
    21    10    27    1
    22    27    29    1
    23    29    30    1
    24    30    31    1
    25    30    32    1
    26    32    33    1
    27    33    34    1
    28    34    35    1
    29    35    36    1
    30    10    11   ar
    31    11    12   ar
    32    23    24   ar
    33    24    25   ar
    34    25    26   ar
    35    19    14    1
    36    26    22   ar
    37    26    18   ar
    38    12     1   ar
    39    11     4   ar
    40    36    30    1
    41    27    28    1
    42    34    37    1
@<TRIPOS>MOLECULE
*****
 37 42 0 0 0
SMALL
GASTEIGER

@<TRIPOS>ATOM
      1 C         139.5593  139.2368  164.6594 C.ar    1  UNL1        0.1188
      2 C         138.4183  138.9138  165.5781 C.ar    1  UNL1        0.0224
      3 C         138.4883  139.3010  167.0255 C.ar    1  UNL1        0.0055
      4 C         139.6991  140.0112  167.5543 C.ar    1  UNL1        0.0486
      5 C         139.7689  140.3983  169.0018 C.ar    1  UNL1        0.1688
      6 F         138.6280  140.0753  169.9204 F       1  UNL1       -0.2017
      7 C         140.9797  141.1085  169.5306 C.ar    1  UNL1        0.1687
      8 F         141.0497  141.4957  170.9780 F       1  UNL1       -0.2018
      9 C         142.1207  141.4315  168.6119 C.ar    1  UNL1        0.0478
     10 C         142.0508  141.0443  167.1644 C.ar    1  UNL1        0.0650
     11 C         140.8400  140.3342  166.6356 C.ar    1  UNL1        0.0967
     12 N         140.7701  139.9469  165.1881 N.ar    1  UNL1       -0.2409
     13 C         144.1022  140.7361  158.4287 C.3     1  UNL1        0.1124
     14 N         142.8516  139.9089  158.3871 N.pl3   1  UNL1       -0.2987
     15 C         142.3947  139.3048  157.0924 C.3     1  UNL1        0.1387
     16 C         141.1441  138.4776  157.0509 C.3     1  UNL1        0.2269
     17 O         140.3504  138.2545  158.3040 O.3     1  UNL1       -0.4692
     18 C         140.8074  138.8586  159.5986 C.ar    1  UNL1        0.1907
     19 C         142.0580  139.6858  159.6402 C.ar    1  UNL1        0.1067
     20 C         142.5149  140.2900  160.9349 C.ar    1  UNL1        0.1382
     21 N         141.7213  140.0669  162.1880 N.ar    1  UNL1       -0.1592
     22 N         140.4707  139.2396  162.1465 N.ar    1  UNL1       -0.1869
     23 C         139.4894  138.8496  163.2118 C.ar    1  UNL1        0.2041
     24 N         138.4260  138.0044  162.5756 N.ar    1  UNL1       -0.1253
     25 N         138.7501  137.8721  161.1169 N.ar    1  UNL1       -0.1237
     26 C         140.0137  138.6355  160.8518 C.ar    1  UNL1        0.2218
     27 N         143.1917  141.3673  166.2457 N.pl3   1  UNL1       -0.3293
     28 H         143.8067  140.6554  165.9553 H       1  UNL1        0.1469
     29 C         143.3956  142.7749  165.7693 C.3     1  UNL1        0.1201
     30 C         143.6942  143.0417  164.3237 C.3     1  UNL1        0.1543
     31 F         142.5262  143.9615  164.5225 F       1  UNL1       -0.2382
     32 C         144.7585  142.0292  164.6270 C.3     1  UNL1        0.0514
     33 C         145.7158  141.6029  163.5537 C.3     1  UNL1        0.0714
     34 N         145.6087  142.1891  162.1772 N.3     1  UNL1       -0.2973
     35 C         144.5444  143.2016  161.8739 C.3     1  UNL1        0.0714
     36 C         143.5871  143.6279  162.9472 C.3     1  UNL1        0.0514
     37 H         145.4648  141.4094  161.5355 H       1  UNL1        0.1233
@<TRIPOS>BOND
     1    13    14    1
     2    14    15    1
     3    15    16    1
     4    16    17    1
     5    17    18    1
     6    18    19   ar
     7    19    20   ar
     8    20    21   ar
     9    21    22   ar
    10    22    23   ar
    11    23     1    1
    12     1     2   ar
    13     2     3   ar
    14     3     4   ar
    15     4     5   ar
    16     5     6    1
    17     5     7   ar
    18     7     8    1
    19     7     9   ar
    20     9    10   ar
    21    10    27    1
    22    27    29    1
    23    29    30    1
    24    30    31    1
    25    30    32    1
    26    32    33    1
    27    33    34    1
    28    34    35    1
    29    35    36    1
    30    10    11   ar
    31    11    12   ar
    32    23    24   ar
    33    24    25   ar
    34    25    26   ar
    35    19    14    1
    36    26    22   ar
    37    26    18   ar
    38    12     1   ar
    39    11     4   ar
    40    36    30    1
    41    27    28    1
    42    34    37    1
@<TRIPOS>MOLECULE
*****
 37 42 0 0 0
SMALL
GASTEIGER

@<TRIPOS>ATOM
      1 C         142.8629  142.2134  165.1104 C.ar    1  UNL1        0.1188
      2 C         143.5776  142.6435  166.3572 C.ar    1  UNL1        0.0224
      3 C         143.0307  142.2681  167.7024 C.ar    1  UNL1        0.0055
      4 C         141.7691  141.4626  167.8011 C.ar    1  UNL1        0.0486
      5 C         141.2223  141.0872  169.1464 C.ar    1  UNL1        0.1688
      6 F         141.9370  141.5173  170.3932 F       1  UNL1       -0.2017
      7 C         139.9607  140.2818  169.2451 C.ar    1  UNL1        0.1687
      8 F         139.4138  139.9063  170.5904 F       1  UNL1       -0.2018
      9 C         139.2461  139.8517  167.9984 C.ar    1  UNL1        0.0478
     10 C         139.7929  140.2271  166.6530 C.ar    1  UNL1        0.0650
     11 C         141.0545  141.0326  166.5544 C.ar    1  UNL1        0.0967
     12 N         141.6014  141.4080  165.2090 N.ar    1  UNL1       -0.2409
     13 C         142.9424  138.6475  158.1115 C.3     1  UNL1        0.1124
     14 N         143.5445  139.9940  158.3842 N.pl3   1  UNL1       -0.2987
     15 C         144.2188  140.7518  157.2792 C.3     1  UNL1        0.1387
     16 C         144.8208  142.0984  157.5520 C.3     1  UNL1        0.2269
     17 O         144.7485  142.6871  158.9296 O.3     1  UNL1       -0.4692
     18 C         144.0741  141.9294  160.0346 C.ar    1  UNL1        0.1907
     19 C         143.4721  140.5828  159.7619 C.ar    1  UNL1        0.1067
     20 C         142.7977  139.8250  160.8669 C.ar    1  UNL1        0.1382
     21 N         142.7254  140.4138  162.2446 N.ar    1  UNL1       -0.1592
     22 N         143.3274  141.7604  162.5173 N.ar    1  UNL1       -0.1869
     23 C         143.4098  142.5889  163.7650 C.ar    1  UNL1        0.2041
     24 N         144.1351  143.8587  163.4311 N.ar    1  UNL1       -0.1253
     25 N         144.5010  143.8150  161.9771 N.ar    1  UNL1       -0.1237
     26 C         144.0017  142.5181  161.4124 C.ar    1  UNL1        0.2218
     27 N         139.0783  139.7971  165.4062 N.pl3   1  UNL1       -0.3293
     28 H         139.3499  138.9720  164.9429 H       1  UNL1        0.1469
     29 C         137.9498  140.6242  164.8655 C.3     1  UNL1        0.1201
     30 C         138.0153  141.1583  163.4653 C.3     1  UNL1        0.1543
     31 F         138.2031  139.6949  163.1950 F       1  UNL1       -0.2382
     32 C         137.8047  142.4362  164.2220 C.3     1  UNL1        0.0514
     33 C         137.7249  143.7400  163.4845 C.3     1  UNL1        0.0714
     34 N         137.8556  143.7658  161.9905 N.3     1  UNL1       -0.2973
     35 C         138.0661  142.4879  161.2338 C.3     1  UNL1        0.0714
     36 C         138.1460  141.1841  161.9713 C.3     1  UNL1        0.0514
     37 H         138.6486  144.3698  161.7747 H       1  UNL1        0.1233
@<TRIPOS>BOND
     1    13    14    1
     2    14    15    1
     3    15    16    1
     4    16    17    1
     5    17    18    1
     6    18    19   ar
     7    19    20   ar
     8    20    21   ar
     9    21    22   ar
    10    22    23   ar
    11    23     1    1
    12     1     2   ar
    13     2     3   ar
    14     3     4   ar
    15     4     5   ar
    16     5     6    1
    17     5     7   ar
    18     7     8    1
    19     7     9   ar
    20     9    10   ar
    21    10    27    1
    22    27    29    1
    23    29    30    1
    24    30    31    1
    25    30    32    1
    26    32    33    1
    27    33    34    1
    28    34    35    1
    29    35    36    1
    30    10    11   ar
    31    11    12   ar
    32    23    24   ar
    33    24    25   ar
    34    25    26   ar
    35    19    14    1
    36    26    22   ar
    37    26    18   ar
    38    12     1   ar
    39    11     4   ar
    40    36    30    1
    41    27    28    1
    42    34    37    1
@<TRIPOS>MOLECULE
*****
 37 42 0 0 0
SMALL
GASTEIGER

@<TRIPOS>ATOM
      1 C         142.1750  143.2961  161.7828 C.ar    1  UNL1        0.1188
      2 C         143.6682  143.4270  161.8376 C.ar    1  UNL1        0.0224
      3 C         144.4746  142.4739  162.6690 C.ar    1  UNL1        0.0055
      4 C         143.7877  141.3898  163.4456 C.ar    1  UNL1        0.0486
      5 C         144.5942  140.4368  164.2770 C.ar    1  UNL1        0.1688
      6 F         146.0874  140.5677  164.3318 F       1  UNL1       -0.2017
      7 C         143.9073  139.3527  165.0536 C.ar    1  UNL1        0.1687
      8 F         144.7137  138.3996  165.8850 F       1  UNL1       -0.2018
      9 C         142.4140  139.2218  164.9988 C.ar    1  UNL1        0.0478
     10 C         141.6076  140.1749  164.1674 C.ar    1  UNL1        0.0650
     11 C         142.2945  141.2589  163.3908 C.ar    1  UNL1        0.0967
     12 N         141.4881  142.2121  162.5593 N.ar    1  UNL1       -0.2409
     13 C         142.2367  145.2266  154.1685 C.3     1  UNL1        0.1124
     14 N         141.3028  145.8139  155.1848 N.pl3   1  UNL1       -0.2987
     15 C         140.2938  146.8433  154.7698 C.3     1  UNL1        0.1387
     16 C         139.3600  147.4306  155.7862 C.3     1  UNL1        0.2269
     17 O         139.4351  146.9885  157.2175 O.3     1  UNL1       -0.4692
     18 C         140.4441  145.9591  157.6326 C.ar    1  UNL1        0.1907
     19 C         141.3779  145.3718  156.6162 C.ar    1  UNL1        0.1067
     20 C         142.3870  144.3424  157.0313 C.ar    1  UNL1        0.1382
     21 N         142.4621  143.9003  158.4627 N.ar    1  UNL1       -0.1592
     22 N         141.5282  144.4876  159.4790 N.ar    1  UNL1       -0.1869
     23 C         141.3685  144.2492  160.9513 C.ar    1  UNL1        0.2041
     24 N         140.2608  145.1313  161.4462 N.ar    1  UNL1       -0.1253
     25 N         139.7359  145.9148  160.2797 N.ar    1  UNL1       -0.1237
     26 C         140.5193  145.5170  159.0640 C.ar    1  UNL1        0.2218
     27 N         140.1143  140.0440  164.1125 N.pl3   1  UNL1       -0.3293
     28 H         139.6935  139.4975  163.4100 H       1  UNL1        0.1469
     29 C         139.2622  140.7458  165.1280 C.3     1  UNL1        0.1201
     30 C         139.1775  142.2434  165.1298 C.3     1  UNL1        0.1543
     31 F         140.0511  142.0305  166.3304 F       1  UNL1       -0.2382
     32 C         138.3333  141.9362  163.9286 C.3     1  UNL1        0.0514
     33 C         137.7078  143.0527  163.1461 C.3     1  UNL1        0.0714
     34 N         137.9266  144.4764  163.5649 N.3     1  UNL1       -0.2973
     35 C         138.7708  144.7836  164.7662 C.3     1  UNL1        0.0714
     36 C         139.3962  143.6671  165.5486 C.3     1  UNL1        0.0514
     37 H         137.0051  144.8759  163.7427 H       1  UNL1        0.1233
@<TRIPOS>BOND
     1    13    14    1
     2    14    15    1
     3    15    16    1
     4    16    17    1
     5    17    18    1
     6    18    19   ar
     7    19    20   ar
     8    20    21   ar
     9    21    22   ar
    10    22    23   ar
    11    23     1    1
    12     1     2   ar
    13     2     3   ar
    14     3     4   ar
    15     4     5   ar
    16     5     6    1
    17     5     7   ar
    18     7     8    1
    19     7     9   ar
    20     9    10   ar
    21    10    27    1
    22    27    29    1
    23    29    30    1
    24    30    31    1
    25    30    32    1
    26    32    33    1
    27    33    34    1
    28    34    35    1
    29    35    36    1
    30    10    11   ar
    31    11    12   ar
    32    23    24   ar
    33    24    25   ar
    34    25    26   ar
    35    19    14    1
    36    26    22   ar
    37    26    18   ar
    38    12     1   ar
    39    11     4   ar
    40    36    30    1
    41    27    28    1
    42    34    37    1
@<TRIPOS>MOLECULE
*****
 37 42 0 0 0
SMALL
GASTEIGER

@<TRIPOS>ATOM
      1 C         142.0474  142.4412  162.3074 C.ar    1  UNL1        0.1188
      2 C         143.4591  142.0801  161.9514 C.ar    1  UNL1        0.0224
      3 C         144.1989  141.0577  162.7623 C.ar    1  UNL1        0.0055
      4 C         143.5270  140.3965  163.9291 C.ar    1  UNL1        0.0486
      5 C         144.2669  139.3741  164.7398 C.ar    1  UNL1        0.1688
      6 F         145.6786  139.0130  164.3839 F       1  UNL1       -0.2017
      7 C         143.5950  138.7129  165.9066 C.ar    1  UNL1        0.1687
      8 F         144.3348  137.6906  166.7175 F       1  UNL1       -0.2018
      9 C         142.1833  139.0741  166.2626 C.ar    1  UNL1        0.0478
     10 C         141.4435  140.0964  165.4518 C.ar    1  UNL1        0.0650
     11 C         142.1153  140.7576  164.2850 C.ar    1  UNL1        0.0967
     12 N         141.3756  141.7800  163.4741 N.ar    1  UNL1       -0.2409
     13 C         142.6277  144.9072  154.8717 C.3     1  UNL1        0.1124
     14 N         141.6360  145.4353  155.8655 N.pl3   1  UNL1       -0.2987
     15 C         140.6677  146.5073  155.4616 C.3     1  UNL1        0.1387
     16 C         139.6760  147.0354  156.4553 C.3     1  UNL1        0.2269
     17 O         139.6525  146.4915  157.8530 O.3     1  UNL1       -0.4692
     18 C         140.6208  145.4195  158.2569 C.ar    1  UNL1        0.1907
     19 C         141.6126  144.8914  157.2631 C.ar    1  UNL1        0.1067
     20 C         142.5809  143.8194  157.6671 C.ar    1  UNL1        0.1382
     21 N         142.5575  143.2755  159.0648 N.ar    1  UNL1       -0.1592
     22 N         141.5658  143.8036  160.0586 N.ar    1  UNL1       -0.1869
     23 C         141.3076  143.4636  161.4966 C.ar    1  UNL1        0.2041
     24 N         140.1797  144.3255  161.9813 N.ar    1  UNL1       -0.1253
     25 N         139.7408  145.1982  160.8430 N.ar    1  UNL1       -0.1237
     26 C         140.5975  144.8756  159.6547 C.ar    1  UNL1        0.2218
     27 N         140.0318  140.4576  165.8077 N.pl3   1  UNL1       -0.3293
     28 H         139.8381  141.3222  166.2369 H       1  UNL1        0.1469
     29 C         138.9151  139.5015  165.5096 C.3     1  UNL1        0.1201
     30 C         138.5374  139.2093  164.0877 C.3     1  UNL1        0.1543
     31 F         139.1477  137.8937  164.4707 F       1  UNL1       -0.2382
     32 C         138.0583  140.6264  164.1986 C.3     1  UNL1        0.0514
     33 C         137.4134  141.2943  163.0204 C.3     1  UNL1        0.0714
     34 N         137.2477  140.5452  161.7315 N.3     1  UNL1       -0.2973
     35 C         137.7268  139.1281  161.6206 C.3     1  UNL1        0.0714
     36 C         138.3717  138.4602  162.7987 C.3     1  UNL1        0.0514
     37 H         137.7397  141.0793  161.0152 H       1  UNL1        0.1233
@<TRIPOS>BOND
     1    13    14    1
     2    14    15    1
     3    15    16    1
     4    16    17    1
     5    17    18    1
     6    18    19   ar
     7    19    20   ar
     8    20    21   ar
     9    21    22   ar
    10    22    23   ar
    11    23     1    1
    12     1     2   ar
    13     2     3   ar
    14     3     4   ar
    15     4     5   ar
    16     5     6    1
    17     5     7   ar
    18     7     8    1
    19     7     9   ar
    20     9    10   ar
    21    10    27    1
    22    27    29    1
    23    29    30    1
    24    30    31    1
    25    30    32    1
    26    32    33    1
    27    33    34    1
    28    34    35    1
    29    35    36    1
    30    10    11   ar
    31    11    12   ar
    32    23    24   ar
    33    24    25   ar
    34    25    26   ar
    35    19    14    1
    36    26    22   ar
    37    26    18   ar
    38    12     1   ar
    39    11     4   ar
    40    36    30    1
    41    27    28    1
    42    34    37    1
@<TRIPOS>MOLECULE
*****
 37 42 0 0 0
SMALL
GASTEIGER

@<TRIPOS>ATOM
      1 C         143.0267  139.3726  164.1805 C.ar    1  UNL1        0.1188
      2 C         143.7890  138.5970  165.2136 C.ar    1  UNL1        0.0224
      3 C         143.4117  138.7043  166.6614 C.ar    1  UNL1        0.0055
      4 C         142.2722  139.5873  167.0760 C.ar    1  UNL1        0.0486
      5 C         141.8950  139.6947  168.5238 C.ar    1  UNL1        0.1688
      6 F         142.6572  138.9190  169.5570 F       1  UNL1       -0.2017
      7 C         140.7555  140.5776  168.9385 C.ar    1  UNL1        0.1687
      8 F         140.3782  140.6850  170.3862 F       1  UNL1       -0.2018
      9 C         139.9933  141.3533  167.9053 C.ar    1  UNL1        0.0478
     10 C         140.3705  141.2460  166.4575 C.ar    1  UNL1        0.0650
     11 C         141.5100  140.3630  166.0429 C.ar    1  UNL1        0.0967
     12 N         141.8873  140.2556  164.5950 N.ar    1  UNL1       -0.2409
     13 C         142.6219  144.3278  158.0985 C.3     1  UNL1        0.1124
     14 N         143.1557  142.9283  158.0182 N.pl3   1  UNL1       -0.2987
     15 C         143.6583  142.3911  156.7110 C.3     1  UNL1        0.1387
     16 C         144.1921  140.9916  156.6308 C.3     1  UNL1        0.2269
     17 O         144.2233  140.1293  157.8577 O.3     1  UNL1       -0.4692
     18 C         143.7206  140.6664  159.1648 C.ar    1  UNL1        0.1907
     19 C         143.1868  142.0659  159.2451 C.ar    1  UNL1        0.1067
     20 C         142.6842  142.6031  160.5524 C.ar    1  UNL1        0.1382
     21 N         142.7153  141.7408  161.7793 N.ar    1  UNL1       -0.1592
     22 N         143.2491  140.3413  161.6990 N.ar    1  UNL1       -0.1869
     23 C         143.4040  139.2653  162.7326 C.ar    1  UNL1        0.2041
     24 N         144.0024  138.0631  162.0642 N.ar    1  UNL1       -0.1253
     25 N         144.2173  138.3962  160.6175 N.ar    1  UNL1       -0.1237
     26 C         143.7518  139.8041  160.3918 C.ar    1  UNL1        0.2218
     27 N         139.6083  142.0216  165.4243 N.pl3   1  UNL1       -0.3293
     28 H         139.1373  141.5477  164.7013 H       1  UNL1        0.1469
     29 C         139.5640  143.5194  165.4927 C.3     1  UNL1        0.1201
     30 C         139.4744  144.3255  164.2308 C.3     1  UNL1        0.1543
     31 F         138.0161  144.0981  164.4988 F       1  UNL1       -0.2382
     32 C         140.9637  144.2728  164.4011 C.3     1  UNL1        0.0514
     33 C         141.8570  144.9474  163.4025 C.3     1  UNL1        0.0714
     34 N         141.2609  145.6744  162.2338 N.3     1  UNL1       -0.2973
     35 C         139.7716  145.7271  162.0635 C.3     1  UNL1        0.0714
     36 C         138.8783  145.0526  163.0621 C.3     1  UNL1        0.0514
     37 H         141.6383  145.2386  161.3923 H       1  UNL1        0.1233
@<TRIPOS>BOND
     1    13    14    1
     2    14    15    1
     3    15    16    1
     4    16    17    1
     5    17    18    1
     6    18    19   ar
     7    19    20   ar
     8    20    21   ar
     9    21    22   ar
    10    22    23   ar
    11    23     1    1
    12     1     2   ar
    13     2     3   ar
    14     3     4   ar
    15     4     5   ar
    16     5     6    1
    17     5     7   ar
    18     7     8    1
    19     7     9   ar
    20     9    10   ar
    21    10    27    1
    22    27    29    1
    23    29    30    1
    24    30    31    1
    25    30    32    1
    26    32    33    1
    27    33    34    1
    28    34    35    1
    29    35    36    1
    30    10    11   ar
    31    11    12   ar
    32    23    24   ar
    33    24    25   ar
    34    25    26   ar
    35    19    14    1
    36    26    22   ar
    37    26    18   ar
    38    12     1   ar
    39    11     4   ar
    40    36    30    1
    41    27    28    1
    42    34    37    1
