@<TRIPOS>MOLECULE
*****
 32 35 0 0 0
SMALL
GASTEIGER

@<TRIPOS>ATOM
      1 O         138.7613  139.4507  168.2325 O.2     1  UNL1       -0.2698
      2 C         140.0181  140.0497  167.6741 C.2     1  UNL1        0.2516
      3 N         140.4408  139.7324  166.2704 N.am    1  UNL1       -0.2659
      4 C         141.6976  140.3314  165.7120 C.3     1  UNL1        0.1160
      5 C         142.1203  140.0140  164.3082 C.3     1  UNL1        0.1197
      6 N         141.2864  139.0976  163.4628 N.am    1  UNL1       -0.2555
      7 C         140.0296  138.4986  164.0212 C.2     1  UNL1        0.2497
      8 O         139.1957  137.5822  163.1758 O.2     1  UNL1       -0.2727
      9 C         139.6069  138.8159  165.4249 C.3     1  UNL1        0.1799
     10 C         140.8520  140.9661  168.5195 C.ar    1  UNL1        0.0811
     11 C         140.3898  142.3679  168.7868 C.ar    1  UNL1        0.0091
     12 C         141.2238  143.2842  169.6322 C.ar    1  UNL1        0.0299
     13 C         142.5200  142.7988  170.2104 C.ar    1  UNL1        0.1424
     14 F         143.3540  143.7152  171.0558 F       1  UNL1       -0.2041
     15 C         142.9822  141.3971  169.9431 C.ar    1  UNL1        0.0594
     16 C         142.1482  140.4808  169.0977 C.ar    1  UNL1        0.1467
     17 F         142.6105  139.0789  168.8304 F       1  UNL1       -0.2039
     18 C         141.7091  138.7803  162.0591 C.ar    1  UNL1        0.0541
     19 C         142.9396  137.9581  161.8141 C.ar    1  UNL1        0.0180
     20 C         143.3624  137.6408  160.4103 C.ar    1  UNL1        0.0382
     21 C         142.5547  138.1456  159.2515 C.ar    1  UNL1        0.1386
     22 C         141.3242  138.9677  159.4965 C.ar    1  UNL1        0.0382
     23 C         140.9014  139.2851  160.9002 C.ar    1  UNL1        0.0180
     24 O         142.9774  137.8282  157.8478 O.3     1  UNL1       -0.4754
     25 C         142.6862  136.4775  157.2640 C.3     1  UNL1        0.2068
     26 C         143.6855  135.8206  156.3585 C.3     1  UNL1        0.0646
     27 C         143.3907  134.4736  155.7680 C.3     1  UNL1        0.0759
     28 N         144.0216  133.2443  156.3519 N.3     1  UNL1       -0.2726
     29 C         144.5797  133.1134  157.7380 C.3     1  UNL1        0.0721
     30 C         145.1083  131.7184  157.8950 C.3     1  UNL1        0.0188
     31 C         144.8768  130.9872  156.6058 C.3     1  UNL1        0.0188
     32 C         144.2052  131.9303  155.6522 C.3     1  UNL1        0.0721
@<TRIPOS>BOND
     1     1     2    2
     2     2    10    1
     3    10    11   ar
     4    11    12   ar
     5    12    13   ar
     6    13    14    1
     7    13    15   ar
     8    15    16   ar
     9    16    17    1
    10     2     3   am
    11     3     4    1
    12     4     5    1
    13     5     6    1
    14     6    18    1
    15    18    19   ar
    16    19    20   ar
    17    20    21   ar
    18    21    24    1
    19    24    25    1
    20    25    26    1
    21    26    27    1
    22    27    28    1
    23    28    29    1
    24    29    30    1
    25    30    31    1
    26    31    32    1
    27    21    22   ar
    28    22    23   ar
    29     6     7   am
    30     7     8    2
    31     7     9    1
    32    16    10   ar
    33     9     3    1
    34    23    18   ar
    35    32    28    1
@<TRIPOS>MOLECULE
*****
 32 35 0 0 0
SMALL
GASTEIGER

@<TRIPOS>ATOM
      1 O         139.0445  139.5068  168.4260 O.2     1  UNL1       -0.2698
      2 C         139.9020  140.5606  167.7903 C.2     1  UNL1        0.2516
      3 N         139.8353  140.7891  166.3094 N.am    1  UNL1       -0.2659
      4 C         140.6929  141.8429  165.6737 C.3     1  UNL1        0.1160
      5 C         140.6261  142.0714  164.1926 C.3     1  UNL1        0.1197
      6 N         139.7018  141.2461  163.3474 N.am    1  UNL1       -0.2555
      7 C         138.8443  140.1923  163.9830 C.2     1  UNL1        0.2497
      8 O         137.9200  139.3670  163.1378 O.2     1  UNL1       -0.2727
      9 C         138.9110  139.9638  165.4640 C.3     1  UNL1        0.1799
     10 C         140.8264  141.3859  168.6357 C.ar    1  UNL1        0.0811
     11 C         140.3788  142.7210  169.1524 C.ar    1  UNL1        0.0091
     12 C         141.3031  143.5463  169.9977 C.ar    1  UNL1        0.0299
     13 C         142.6750  143.0364  170.3263 C.ar    1  UNL1        0.1424
     14 F         143.5993  143.8617  171.1716 F       1  UNL1       -0.2041
     15 C         143.1226  141.7013  169.8095 C.ar    1  UNL1        0.0594
     16 C         142.1982  140.8760  168.9642 C.ar    1  UNL1        0.1467
     17 F         142.6458  139.5408  168.4474 F       1  UNL1       -0.2039
     18 C         139.6351  141.4746  161.8664 C.ar    1  UNL1        0.0541
     19 C         140.6625  140.8565  160.9651 C.ar    1  UNL1        0.0180
     20 C         140.5957  141.0850  159.4841 C.ar    1  UNL1        0.0382
     21 C         139.5016  141.9316  158.9044 C.ar    1  UNL1        0.1386
     22 C         138.4742  142.5497  159.8057 C.ar    1  UNL1        0.0382
     23 C         138.5409  142.3212  161.2867 C.ar    1  UNL1        0.0180
     24 O         139.4349  142.1601  157.4234 O.3     1  UNL1       -0.4754
     25 C         139.4406  143.5579  156.8792 C.3     1  UNL1        0.2068
     26 C         140.5682  144.4886  157.2144 C.3     1  UNL1        0.0646
     27 C         140.3779  145.5539  158.2532 C.3     1  UNL1        0.0759
     28 N         140.7439  145.2819  159.6821 N.3     1  UNL1       -0.2726
     29 C         140.0301  145.8102  160.8910 C.3     1  UNL1        0.0721
     30 C         140.7330  145.2887  162.1091 C.3     1  UNL1        0.0188
     31 C         141.8813  144.4380  161.6532 C.3     1  UNL1        0.0188
     32 C         141.8880  144.4338  160.1532 C.3     1  UNL1        0.0721
@<TRIPOS>BOND
     1     1     2    2
     2     2    10    1
     3    10    11   ar
     4    11    12   ar
     5    12    13   ar
     6    13    14    1
     7    13    15   ar
     8    15    16   ar
     9    16    17    1
    10     2     3   am
    11     3     4    1
    12     4     5    1
    13     5     6    1
    14     6    18    1
    15    18    19   ar
    16    19    20   ar
    17    20    21   ar
    18    21    24    1
    19    24    25    1
    20    25    26    1
    21    26    27    1
    22    27    28    1
    23    28    29    1
    24    29    30    1
    25    30    31    1
    26    31    32    1
    27    21    22   ar
    28    22    23   ar
    29     6     7   am
    30     7     8    2
    31     7     9    1
    32    16    10   ar
    33     9     3    1
    34    23    18   ar
    35    32    28    1
@<TRIPOS>MOLECULE
*****
 32 35 0 0 0
SMALL
GASTEIGER

@<TRIPOS>ATOM
      1 O         143.2414  138.9719  168.0337 O.2     1  UNL1       -0.2698
      2 C         142.0979  139.7968  167.5220 C.2     1  UNL1        0.2516
      3 N         141.6914  139.7033  166.0812 N.am    1  UNL1       -0.2659
      4 C         140.5479  140.5282  165.5694 C.3     1  UNL1        0.1160
      5 C         140.1414  140.4346  164.1285 C.3     1  UNL1        0.1197
      6 N         140.8785  139.5162  163.1994 N.am    1  UNL1       -0.2555
      7 C         142.0220  138.6913  163.7112 C.2     1  UNL1        0.2497
      8 O         142.7590  137.7728  162.7822 O.2     1  UNL1       -0.2727
      9 C         142.4285  138.7848  165.1520 C.3     1  UNL1        0.1799
     10 C         141.3608  140.7153  168.4511 C.ar    1  UNL1        0.0811
     11 C         140.0969  140.2547  169.1147 C.ar    1  UNL1        0.0091
     12 C         139.3600  141.1732  170.0437 C.ar    1  UNL1        0.0299
     13 C         139.8869  142.5523  170.3092 C.ar    1  UNL1        0.1424
     14 F         139.1498  143.4708  171.2383 F       1  UNL1       -0.2041
     15 C         141.1508  143.0129  169.6456 C.ar    1  UNL1        0.0594
     16 C         141.8877  142.0944  168.7166 C.ar    1  UNL1        0.1467
     17 F         143.1517  142.5550  168.0529 F       1  UNL1       -0.2039
     18 C         140.4720  139.4226  161.7586 C.ar    1  UNL1        0.0541
     19 C         139.2760  138.6059  161.3683 C.ar    1  UNL1        0.0180
     20 C         138.8695  138.5123  159.9274 C.ar    1  UNL1        0.0382
     21 C         139.6591  139.2355  158.8769 C.ar    1  UNL1        0.1386
     22 C         140.8551  140.0523  159.2673 C.ar    1  UNL1        0.0382
     23 C         141.2616  140.1459  160.7081 C.ar    1  UNL1        0.0180
     24 O         139.2526  139.1420  157.4361 O.3     1  UNL1       -0.4754
     25 C         138.5181  140.2784  156.7887 C.3     1  UNL1        0.2068
     26 C         137.6356  141.1678  157.6135 C.3     1  UNL1        0.0646
     27 C         138.0521  142.5800  157.9004 C.3     1  UNL1        0.0759
     28 N         138.6773  142.9241  159.2198 N.3     1  UNL1       -0.2726
     29 C         139.8492  143.8368  159.4287 C.3     1  UNL1        0.0721
     30 C         140.1366  143.8928  160.8999 C.3     1  UNL1        0.0188
     31 C         139.1423  143.0146  161.6002 C.3     1  UNL1        0.0188
     32 C         138.2404  142.4160  160.5618 C.3     1  UNL1        0.0721
@<TRIPOS>BOND
     1     1     2    2
     2     2    10    1
     3    10    11   ar
     4    11    12   ar
     5    12    13   ar
     6    13    14    1
     7    13    15   ar
     8    15    16   ar
     9    16    17    1
    10     2     3   am
    11     3     4    1
    12     4     5    1
    13     5     6    1
    14     6    18    1
    15    18    19   ar
    16    19    20   ar
    17    20    21   ar
    18    21    24    1
    19    24    25    1
    20    25    26    1
    21    26    27    1
    22    27    28    1
    23    28    29    1
    24    29    30    1
    25    30    31    1
    26    31    32    1
    27    21    22   ar
    28    22    23   ar
    29     6     7   am
    30     7     8    2
    31     7     9    1
    32    16    10   ar
    33     9     3    1
    34    23    18   ar
    35    32    28    1
@<TRIPOS>MOLECULE
*****
 32 35 0 0 0
SMALL
GASTEIGER

@<TRIPOS>ATOM
      1 O         138.8549  139.4744  168.3593 O.2     1  UNL1       -0.2698
      2 C         140.0888  140.0959  167.7751 C.2     1  UNL1        0.2516
      3 N         140.4974  139.7725  166.3685 N.am    1  UNL1       -0.2659
      4 C         141.7312  140.3939  165.7842 C.3     1  UNL1        0.1160
      5 C         142.1398  140.0705  164.3776 C.3     1  UNL1        0.1197
      6 N         141.3146  139.1257  163.5553 N.am    1  UNL1       -0.2555
      7 C         140.0807  138.5043  164.1396 C.2     1  UNL1        0.2497
      8 O         139.2554  137.5595  163.3173 O.2     1  UNL1       -0.2727
      9 C         139.6721  138.8276  165.5461 C.3     1  UNL1        0.1799
     10 C         140.9140  141.0407  168.5974 C.ar    1  UNL1        0.0811
     11 C         140.4375  142.4435  168.8319 C.ar    1  UNL1        0.0091
     12 C         141.2628  143.3883  169.6542 C.ar    1  UNL1        0.0299
     13 C         142.5646  142.9303  170.2421 C.ar    1  UNL1        0.1424
     14 F         143.3899  143.8751  171.0645 F       1  UNL1       -0.2041
     15 C         143.0411  141.5274  170.0076 C.ar    1  UNL1        0.0594
     16 C         142.2158  140.5827  169.1853 C.ar    1  UNL1        0.1467
     17 F         142.6923  139.1798  168.9508 F       1  UNL1       -0.2039
     18 C         141.7232  138.8023  162.1488 C.ar    1  UNL1        0.0541
     19 C         142.9238  137.9394  161.8961 C.ar    1  UNL1        0.0180
     20 C         143.3324  137.6161  160.4895 C.ar    1  UNL1        0.0382
     21 C         142.5404  138.1556  159.3356 C.ar    1  UNL1        0.1386
     22 C         141.3397  139.0185  159.5882 C.ar    1  UNL1        0.0382
     23 C         140.9311  139.3419  160.9948 C.ar    1  UNL1        0.0180
     24 O         142.9490  137.8322  157.9290 O.3     1  UNL1       -0.4754
     25 C         142.5258  138.7256  156.8009 C.3     1  UNL1        0.2068
     26 C         143.4835  139.7382  156.2462 C.3     1  UNL1        0.0646
     27 C         144.4029  140.4841  157.1673 C.3     1  UNL1        0.0759
     28 N         145.6076  141.1877  156.6163 N.3     1  UNL1       -0.2726
     29 C         146.2609  142.4054  157.1997 C.3     1  UNL1        0.0721
     30 C         147.4276  142.7676  156.3292 C.3     1  UNL1        0.0188
     31 C         147.4953  141.7736  155.2078 C.3     1  UNL1        0.0188
     32 C         146.3705  140.7973  155.3852 C.3     1  UNL1        0.0721
@<TRIPOS>BOND
     1     1     2    2
     2     2    10    1
     3    10    11   ar
     4    11    12   ar
     5    12    13   ar
     6    13    14    1
     7    13    15   ar
     8    15    16   ar
     9    16    17    1
    10     2     3   am
    11     3     4    1
    12     4     5    1
    13     5     6    1
    14     6    18    1
    15    18    19   ar
    16    19    20   ar
    17    20    21   ar
    18    21    24    1
    19    24    25    1
    20    25    26    1
    21    26    27    1
    22    27    28    1
    23    28    29    1
    24    29    30    1
    25    30    31    1
    26    31    32    1
    27    21    22   ar
    28    22    23   ar
    29     6     7   am
    30     7     8    2
    31     7     9    1
    32    16    10   ar
    33     9     3    1
    34    23    18   ar
    35    32    28    1
@<TRIPOS>MOLECULE
*****
 32 35 0 0 0
SMALL
GASTEIGER

@<TRIPOS>ATOM
      1 O         143.3466  138.7576  168.0556 O.2     1  UNL1       -0.2698
      2 C         142.5999  139.9512  167.5379 C.2     1  UNL1        0.2516
      3 N         142.6895  140.3204  166.0869 N.am    1  UNL1       -0.2659
      4 C         141.9429  141.5140  165.5692 C.3     1  UNL1        0.1160
      5 C         142.0325  141.8832  164.1181 C.3     1  UNL1        0.1197
      6 N         142.8687  141.0589  163.1847 N.am    1  UNL1       -0.2555
      7 C         143.6153  139.8653  163.7023 C.2     1  UNL1        0.2497
      8 O         144.4514  139.0410  162.7689 O.2     1  UNL1       -0.2727
      9 C         143.5257  139.4961  165.1534 C.3     1  UNL1        0.1799
     10 C         141.7637  140.7755  168.4714 C.ar    1  UNL1        0.0811
     11 C         140.3824  140.3217  168.8400 C.ar    1  UNL1        0.0091
     12 C         139.5463  141.1460  169.7734 C.ar    1  UNL1        0.0299
     13 C         140.0915  142.4242  170.3382 C.ar    1  UNL1        0.1424
     14 F         139.2553  143.2485  171.2717 F       1  UNL1       -0.2041
     15 C         141.4728  142.8780  169.9696 C.ar    1  UNL1        0.0594
     16 C         142.3090  142.0537  169.0362 C.ar    1  UNL1        0.1467
     17 F         143.6904  142.5075  168.6676 F       1  UNL1       -0.2039
     18 C         142.9582  141.4281  161.7336 C.ar    1  UNL1        0.0541
     19 C         143.8946  142.5137  161.2923 C.ar    1  UNL1        0.0180
     20 C         143.9841  142.8829  159.8412 C.ar    1  UNL1        0.0382
     21 C         143.1373  142.1666  158.8314 C.ar    1  UNL1        0.1386
     22 C         142.2009  141.0810  159.2727 C.ar    1  UNL1        0.0382
     23 C         142.1114  140.7118  160.7237 C.ar    1  UNL1        0.0180
     24 O         143.2269  142.5358  157.3804 O.3     1  UNL1       -0.4754
     25 C         142.2836  143.5503  156.8050 C.3     1  UNL1        0.2068
     26 C         142.2252  144.9331  157.3835 C.3     1  UNL1        0.0646
     27 C         140.9903  145.3953  158.0987 C.3     1  UNL1        0.0759
     28 N         140.5901  144.7548  159.3946 N.3     1  UNL1       -0.2726
     29 C         139.6093  143.6316  159.5571 C.3     1  UNL1        0.0721
     30 C         139.5134  143.3077  161.0185 C.3     1  UNL1        0.0188
     31 C         140.4349  144.2307  161.7594 C.3     1  UNL1        0.0188
     32 C         141.1003  145.1251  160.7557 C.3     1  UNL1        0.0721
@<TRIPOS>BOND
     1     1     2    2
     2     2    10    1
     3    10    11   ar
     4    11    12   ar
     5    12    13   ar
     6    13    14    1
     7    13    15   ar
     8    15    16   ar
     9    16    17    1
    10     2     3   am
    11     3     4    1
    12     4     5    1
    13     5     6    1
    14     6    18    1
    15    18    19   ar
    16    19    20   ar
    17    20    21   ar
    18    21    24    1
    19    24    25    1
    20    25    26    1
    21    26    27    1
    22    27    28    1
    23    28    29    1
    24    29    30    1
    25    30    31    1
    26    31    32    1
    27    21    22   ar
    28    22    23   ar
    29     6     7   am
    30     7     8    2
    31     7     9    1
    32    16    10   ar
    33     9     3    1
    34    23    18   ar
    35    32    28    1
@<TRIPOS>MOLECULE
*****
 32 35 0 0 0
SMALL
GASTEIGER

@<TRIPOS>ATOM
      1 O         144.8060  137.2897  155.7005 O.2     1  UNL1       -0.2698
      2 C         143.3676  136.9526  155.9598 C.2     1  UNL1        0.2516
      3 N         142.5334  137.8445  156.8308 N.am    1  UNL1       -0.2659
      4 C         141.0950  137.5073  157.0900 C.3     1  UNL1        0.1160
      5 C         140.2608  138.3993  157.9611 C.3     1  UNL1        0.1197
      6 N         140.8651  139.6284  158.5728 N.am    1  UNL1       -0.2555
      7 C         142.3036  139.9655  158.3135 C.2     1  UNL1        0.2497
      8 O         142.9078  141.1945  158.9252 O.2     1  UNL1       -0.2727
      9 C         143.1377  139.0736  157.4425 C.3     1  UNL1        0.1799
     10 C         142.7633  135.7234  155.3480 C.ar    1  UNL1        0.0811
     11 C         142.3420  135.7317  153.9084 C.ar    1  UNL1        0.0091
     12 C         141.7378  134.5027  153.2967 C.ar    1  UNL1        0.0299
     13 C         141.5548  133.2653  154.1246 C.ar    1  UNL1        0.1424
     14 F         140.9505  132.0362  153.5129 F       1  UNL1       -0.2041
     15 C         141.9760  133.2570  155.5642 C.ar    1  UNL1        0.0594
     16 C         142.5802  134.4861  156.1759 C.ar    1  UNL1        0.1467
     17 F         143.0015  134.4778  157.6156 F       1  UNL1       -0.2039
     18 C         140.0310  140.5203  159.4438 C.ar    1  UNL1        0.0541
     19 C         139.8989  140.2273  160.9089 C.ar    1  UNL1        0.0180
     20 C         139.0647  141.1193  161.7799 C.ar    1  UNL1        0.0382
     21 C         138.3626  142.3042  161.1857 C.ar    1  UNL1        0.1386
     22 C         138.4947  142.5971  159.7206 C.ar    1  UNL1        0.0382
     23 C         139.3289  141.7052  158.8496 C.ar    1  UNL1        0.0180
     24 O         137.5285  143.1961  162.0567 O.3     1  UNL1       -0.4754
     25 C         137.8365  143.3167  163.5198 C.3     1  UNL1        0.2068
     26 C         138.5233  144.5433  164.0430 C.3     1  UNL1        0.0646
     27 C         139.9993  144.7198  163.8419 C.3     1  UNL1        0.0759
     28 N         140.5731  144.7164  162.4561 N.3     1  UNL1       -0.2726
     29 C         141.6471  143.8003  161.9488 C.3     1  UNL1        0.0721
     30 C         141.9114  144.1461  160.5134 C.3     1  UNL1        0.0188
     31 C         141.0008  145.2760  160.1335 C.3     1  UNL1        0.0188
     32 C         140.1737  145.6284  161.3341 C.3     1  UNL1        0.0721
@<TRIPOS>BOND
     1     1     2    2
     2     2    10    1
     3    10    11   ar
     4    11    12   ar
     5    12    13   ar
     6    13    14    1
     7    13    15   ar
     8    15    16   ar
     9    16    17    1
    10     2     3   am
    11     3     4    1
    12     4     5    1
    13     5     6    1
    14     6    18    1
    15    18    19   ar
    16    19    20   ar
    17    20    21   ar
    18    21    24    1
    19    24    25    1
    20    25    26    1
    21    26    27    1
    22    27    28    1
    23    28    29    1
    24    29    30    1
    25    30    31    1
    26    31    32    1
    27    21    22   ar
    28    22    23   ar
    29     6     7   am
    30     7     8    2
    31     7     9    1
    32    16    10   ar
    33     9     3    1
    34    23    18   ar
    35    32    28    1
@<TRIPOS>MOLECULE
*****
 32 35 0 0 0
SMALL
GASTEIGER

@<TRIPOS>ATOM
      1 O         138.8190  139.5003  168.3880 O.2     1  UNL1       -0.2698
      2 C         140.0759  140.0855  167.8155 C.2     1  UNL1        0.2516
      3 N         140.4927  139.7434  166.4158 N.am    1  UNL1       -0.2659
      4 C         141.7495  140.3286  165.8432 C.3     1  UNL1        0.1160
      5 C         142.1663  139.9865  164.4434 C.3     1  UNL1        0.1197
      6 N         141.3262  139.0592  163.6163 N.am    1  UNL1       -0.2555
      7 C         140.0694  138.4739  164.1888 C.2     1  UNL1        0.2497
      8 O         139.2293  137.5466  163.3616 O.2     1  UNL1       -0.2727
      9 C         139.6526  138.8160  165.5885 C.3     1  UNL1        0.1799
     10 C         140.9160  141.0129  168.6427 C.ar    1  UNL1        0.0811
     11 C         140.4501  142.4144  168.9046 C.ar    1  UNL1        0.0091
     12 C         141.2902  143.3417  169.7318 C.ar    1  UNL1        0.0299
     13 C         142.5961  142.8675  170.2971 C.ar    1  UNL1        0.1424
     14 F         143.4362  143.7949  171.1244 F       1  UNL1       -0.2041
     15 C         143.0620  141.4660  170.0353 C.ar    1  UNL1        0.0594
     16 C         142.2219  140.5387  169.2081 C.ar    1  UNL1        0.1467
     17 F         142.6878  139.1370  168.9462 F       1  UNL1       -0.2039
     18 C         141.7430  138.7171  162.2166 C.ar    1  UNL1        0.0541
     19 C         140.8720  139.1050  161.0586 C.ar    1  UNL1        0.0180
     20 C         141.2888  138.7629  159.6589 C.ar    1  UNL1        0.0382
     21 C         142.5766  138.0328  159.4171 C.ar    1  UNL1        0.1386
     22 C         143.4476  137.6448  160.5750 C.ar    1  UNL1        0.0382
     23 C         143.0309  137.9869  161.9747 C.ar    1  UNL1        0.0180
     24 O         142.9934  137.6907  158.0174 O.3     1  UNL1       -0.4754
     25 C         142.3710  138.4041  156.8539 C.3     1  UNL1        0.2068
     26 C         143.1805  139.3798  156.0522 C.3     1  UNL1        0.0646
     27 C         143.0748  140.8498  156.3312 C.3     1  UNL1        0.0759
     28 N         143.0130  141.3420  157.7468 N.3     1  UNL1       -0.2726
     29 C         144.0801  141.1713  158.7870 C.3     1  UNL1        0.0721
     30 C         143.5998  141.8151  160.0538 C.3     1  UNL1        0.0188
     31 C         142.2357  142.3836  159.7966 C.3     1  UNL1        0.0188
     32 C         141.8730  142.0912  158.3707 C.3     1  UNL1        0.0721
@<TRIPOS>BOND
     1     1     2    2
     2     2    10    1
     3    10    11   ar
     4    11    12   ar
     5    12    13   ar
     6    13    14    1
     7    13    15   ar
     8    15    16   ar
     9    16    17    1
    10     2     3   am
    11     3     4    1
    12     4     5    1
    13     5     6    1
    14     6    18    1
    15    18    19   ar
    16    19    20   ar
    17    20    21   ar
    18    21    24    1
    19    24    25    1
    20    25    26    1
    21    26    27    1
    22    27    28    1
    23    28    29    1
    24    29    30    1
    25    30    31    1
    26    31    32    1
    27    21    22   ar
    28    22    23   ar
    29     6     7   am
    30     7     8    2
    31     7     9    1
    32    16    10   ar
    33     9     3    1
    34    23    18   ar
    35    32    28    1
@<TRIPOS>MOLECULE
*****
 32 35 0 0 0
SMALL
GASTEIGER

@<TRIPOS>ATOM
      1 O         144.8792  137.1567  155.4263 O.2     1  UNL1       -0.2698
      2 C         143.5024  136.8344  155.9268 C.2     1  UNL1        0.2516
      3 N         142.7484  137.8387  156.7470 N.am    1  UNL1       -0.2659
      4 C         141.3716  137.5165  157.2475 C.3     1  UNL1        0.1160
      5 C         140.6175  138.5209  158.0677 C.3     1  UNL1        0.1197
      6 N         141.2403  139.8474  158.3874 N.am    1  UNL1       -0.2555
      7 C         142.6172  140.1697  157.8869 C.2     1  UNL1        0.2497
      8 O         143.2400  141.4963  158.2067 O.2     1  UNL1       -0.2727
      9 C         143.3712  139.1654  157.0667 C.3     1  UNL1        0.1799
     10 C         142.8796  135.5078  155.6070 C.ar    1  UNL1        0.0811
     11 C         142.1745  135.3062  154.2986 C.ar    1  UNL1        0.0091
     12 C         141.5517  133.9795  153.9789 C.ar    1  UNL1        0.0299
     13 C         141.6341  132.8546  154.9677 C.ar    1  UNL1        0.1424
     14 F         141.0113  131.5279  154.6479 F       1  UNL1       -0.2041
     15 C         142.3393  133.0562  156.2761 C.ar    1  UNL1        0.0594
     16 C         142.9620  134.3828  156.5958 C.ar    1  UNL1        0.1467
     17 F         143.6672  134.5845  157.9043 F       1  UNL1       -0.2039
     18 C         140.4863  140.8517  159.2076 C.ar    1  UNL1        0.0541
     19 C         141.0399  141.3132  160.5232 C.ar    1  UNL1        0.0180
     20 C         140.2858  142.3175  161.3434 C.ar    1  UNL1        0.0382
     21 C         138.9782  142.8604  160.8480 C.ar    1  UNL1        0.1386
     22 C         138.4246  142.3990  159.5325 C.ar    1  UNL1        0.0382
     23 C         139.1786  141.3947  158.7123 C.ar    1  UNL1        0.0180
     24 O         138.2242  143.8647  161.6682 O.3     1  UNL1       -0.4754
     25 C         137.6682  143.4751  163.0058 C.3     1  UNL1        0.2068
     26 C         137.3857  142.0335  163.3095 C.3     1  UNL1        0.0646
     27 C         138.0653  141.3638  164.4670 C.3     1  UNL1        0.0759
     28 N         138.4310  139.9115  164.3838 N.3     1  UNL1       -0.2726
     29 C         138.8108  139.1679  163.1378 C.3     1  UNL1        0.0721
     30 C         139.0957  137.7446  163.5160 C.3     1  UNL1        0.0188
     31 C         138.8920  137.6085  164.9959 C.3     1  UNL1        0.0188
     32 C         138.4812  138.9478  165.5322 C.3     1  UNL1        0.0721
@<TRIPOS>BOND
     1     1     2    2
     2     2    10    1
     3    10    11   ar
     4    11    12   ar
     5    12    13   ar
     6    13    14    1
     7    13    15   ar
     8    15    16   ar
     9    16    17    1
    10     2     3   am
    11     3     4    1
    12     4     5    1
    13     5     6    1
    14     6    18    1
    15    18    19   ar
    16    19    20   ar
    17    20    21   ar
    18    21    24    1
    19    24    25    1
    20    25    26    1
    21    26    27    1
    22    27    28    1
    23    28    29    1
    24    29    30    1
    25    30    31    1
    26    31    32    1
    27    21    22   ar
    28    22    23   ar
    29     6     7   am
    30     7     8    2
    31     7     9    1
    32    16    10   ar
    33     9     3    1
    34    23    18   ar
    35    32    28    1
@<TRIPOS>MOLECULE
*****
 32 35 0 0 0
SMALL
GASTEIGER

@<TRIPOS>ATOM
      1 O         137.5882  145.7289  154.8350 O.2     1  UNL1       -0.2698
      2 C         138.7548  146.4127  155.4842 C.2     1  UNL1        0.2516
      3 N         139.6540  145.6464  156.4085 N.am    1  UNL1       -0.2659
      4 C         140.8206  146.3301  157.0577 C.3     1  UNL1        0.1160
      5 C         141.7197  145.5637  157.9820 C.3     1  UNL1        0.1197
      6 N         141.4522  144.1136  158.2570 N.am    1  UNL1       -0.2555
      7 C         140.2856  143.4299  157.6078 C.2     1  UNL1        0.2497
      8 O         140.0181  141.9798  157.8828 O.2     1  UNL1       -0.2727
      9 C         139.3865  144.1962  156.6836 C.3     1  UNL1        0.1799
     10 C         139.0223  147.8628  155.2092 C.ar    1  UNL1        0.0811
     11 C         138.3911  148.9180  156.0683 C.ar    1  UNL1        0.0091
     12 C         138.6586  150.3681  155.7932 C.ar    1  UNL1        0.0299
     13 C         139.5573  150.7629  154.6589 C.ar    1  UNL1        0.1424
     14 F         139.8247  152.2131  154.3839 F       1  UNL1       -0.2041
     15 C         140.1885  149.7078  153.7998 C.ar    1  UNL1        0.0594
     16 C         139.9210  148.2577  154.0749 C.ar    1  UNL1        0.1467
     17 F         140.5522  147.2024  153.2158 F       1  UNL1       -0.2039
     18 C         142.3514  143.3473  159.1813 C.ar    1  UNL1        0.0541
     19 C         141.8690  142.9622  160.5484 C.ar    1  UNL1        0.0180
     20 C         142.7683  142.1959  161.4727 C.ar    1  UNL1        0.0382
     21 C         144.1497  141.8147  161.0298 C.ar    1  UNL1        0.1386
     22 C         144.6320  142.1997  159.6626 C.ar    1  UNL1        0.0382
     23 C         143.7329  142.9661  158.7384 C.ar    1  UNL1        0.0180
     24 O         145.0488  141.0483  161.9540 O.3     1  UNL1       -0.4754
     25 C         145.6539  141.7283  163.1463 C.3     1  UNL1        0.2068
     26 C         144.8984  141.7849  164.4410 C.3     1  UNL1        0.0646
     27 C         144.5206  143.1111  165.0314 C.3     1  UNL1        0.0759
     28 N         143.2670  143.8019  164.5830 N.3     1  UNL1       -0.2726
     29 C         143.1964  145.0715  163.7873 C.3     1  UNL1        0.0721
     30 C         141.7496  145.3988  163.5641 C.3     1  UNL1        0.0188
     31 C         140.9261  144.3314  164.2219 C.3     1  UNL1        0.0188
     32 C         141.8639  143.3445  164.8516 C.3     1  UNL1        0.0721
@<TRIPOS>BOND
     1     1     2    2
     2     2    10    1
     3    10    11   ar
     4    11    12   ar
     5    12    13   ar
     6    13    14    1
     7    13    15   ar
     8    15    16   ar
     9    16    17    1
    10     2     3   am
    11     3     4    1
    12     4     5    1
    13     5     6    1
    14     6    18    1
    15    18    19   ar
    16    19    20   ar
    17    20    21   ar
    18    21    24    1
    19    24    25    1
    20    25    26    1
    21    26    27    1
    22    27    28    1
    23    28    29    1
    24    29    30    1
    25    30    31    1
    26    31    32    1
    27    21    22   ar
    28    22    23   ar
    29     6     7   am
    30     7     8    2
    31     7     9    1
    32    16    10   ar
    33     9     3    1
    34    23    18   ar
    35    32    28    1
