@<TRIPOS>MOLECULE
*****
 22 24 0 0 0
SMALL
GASTEIGER

@<TRIPOS>ATOM
      1 C         141.7894  137.9805  162.7825 C.ar    1  UNL1        0.1547
      2 C         141.7661  138.4851  164.1949 C.ar    1  UNL1        0.0381
      3 C         142.9579  139.2038  164.7543 C.ar    1  UNL1        0.0061
      4 C         144.1731  139.4178  163.9015 C.ar    1  UNL1        0.0012
      5 C         144.1965  138.9131  162.4891 C.ar    1  UNL1        0.0145
      6 C         143.0046  138.1945  161.9297 C.ar    1  UNL1        0.0917
      7 CL        143.0280  137.6898  160.5172 Cl      1  UNL1       -0.0791
      8 C         142.9345  139.7085  166.1667 C.ar    1  UNL1        0.0397
      9 C         143.0266  138.8673  167.4052 C.ar    1  UNL1        0.1216
     10 N         142.9640  139.7818  168.5925 N.ar    1  UNL1       -0.1674
     11 N         142.8331  141.1884  168.0878 N.ar    1  UNL1       -0.2451
     12 C         142.8149  141.1430  166.5886 C.ar    1  UNL1        0.0970
     13 C         142.7373  142.4233  168.9337 C.3     1  UNL1        0.1532
     14 C         141.6257  142.5649  169.9309 C.2     1  UNL1        0.0269
     15 C         141.5170  141.8389  171.2390 C.2     1  UNL1        0.1171
     16 N         140.2518  142.2826  171.9116 N.2     1  UNL1       -0.1513
     17 N         139.5787  143.2829  171.0193 N.2     1  UNL1       -0.1698
     18 C         140.4278  143.4574  169.7951 C.3     1  UNL1        0.1748
     19 O         140.5976  137.2618  162.2231 O.3     1  UNL1       -0.4228
     20 F         139.3114  138.2541  160.1954 F       1  UNL1       -0.1550
     21 C         139.4401  138.0427  161.6749 C.3     1  UNL1        0.5087
     22 F         138.4113  138.6122  162.6062 F       1  UNL1       -0.1550
@<TRIPOS>BOND
     1    20    21    1
     2    21    22    1
     3    21    19    1
     4    19     1    1
     5     1     2   ar
     6     2     3   ar
     7     3     8    1
     8     8     9   ar
     9     9    10   ar
    10    10    11   ar
    11    11    13    1
    12    13    14    1
    13    14    15    2
    14    15    16    1
    15    16    17    2
    16    17    18    1
    17    11    12   ar
    18     3     4   ar
    19     4     5   ar
    20     5     6   ar
    21     6     7    1
    22     6     1   ar
    23    12     8   ar
    24    18    14    1
@<TRIPOS>MOLECULE
*****
 22 24 0 0 0
SMALL
GASTEIGER

@<TRIPOS>ATOM
      1 C         140.9228  144.4407  162.9165 C.ar    1  UNL1        0.1547
      2 C         140.9272  143.3113  163.9036 C.ar    1  UNL1        0.0381
      3 C         139.6450  142.8722  164.5465 C.ar    1  UNL1        0.0061
      4 C         138.3586  143.5624  164.2022 C.ar    1  UNL1        0.0012
      5 C         138.3542  144.6918  163.2150 C.ar    1  UNL1        0.0145
      6 C         139.6364  145.1309  162.5722 C.ar    1  UNL1        0.0917
      7 CL        139.6320  146.2603  161.5849 Cl      1  UNL1       -0.0791
      8 C         139.6494  141.7428  165.5337 C.ar    1  UNL1        0.0397
      9 C         138.8401  140.4836  165.4364 C.ar    1  UNL1        0.1216
     10 N         139.1544  139.6370  166.6341 N.ar    1  UNL1       -0.1674
     11 N         140.1579  140.3729  167.4717 N.ar    1  UNL1       -0.2451
     12 C         140.4638  141.6744  166.7915 C.ar    1  UNL1        0.0970
     13 C         140.7512  139.8919  168.7626 C.3     1  UNL1        0.1532
     14 C         140.8411  140.8191  169.9382 C.2     1  UNL1        0.0269
     15 C         142.0692  141.0896  170.7559 C.2     1  UNL1        0.1171
     16 N         141.7058  142.0763  171.8257 N.2     1  UNL1       -0.1513
     17 N         140.2531  142.4156  171.6691 N.2     1  UNL1       -0.1698
     18 C         139.7187  141.6387  170.5026 C.3     1  UNL1        0.1748
     19 O         142.2050  144.8798  162.2736 O.3     1  UNL1       -0.4228
     20 F         144.6762  144.0944  162.4350 F       1  UNL1       -0.1550
     21 C         143.4939  144.7948  163.0362 C.3     1  UNL1        0.5087
     22 F         143.6004  145.4104  164.4000 F       1  UNL1       -0.1550
@<TRIPOS>BOND
     1    20    21    1
     2    21    22    1
     3    21    19    1
     4    19     1    1
     5     1     2   ar
     6     2     3   ar
     7     3     8    1
     8     8     9   ar
     9     9    10   ar
    10    10    11   ar
    11    11    13    1
    12    13    14    1
    13    14    15    2
    14    15    16    1
    15    16    17    2
    16    17    18    1
    17    11    12   ar
    18     3     4   ar
    19     4     5   ar
    20     5     6   ar
    21     6     7    1
    22     6     1   ar
    23    12     8   ar
    24    18    14    1
@<TRIPOS>MOLECULE
*****
 22 24 0 0 0
SMALL
GASTEIGER

@<TRIPOS>ATOM
      1 C         140.6253  140.7754  169.4752 C.ar    1  UNL1        0.1547
      2 C         139.8116  140.6942  168.2178 C.ar    1  UNL1        0.0381
      3 C         140.3701  140.0088  167.0060 C.ar    1  UNL1        0.0061
      4 C         141.7423  139.4048  167.0517 C.ar    1  UNL1        0.0012
      5 C         142.5560  139.4860  168.3092 C.ar    1  UNL1        0.0145
      6 C         141.9975  140.1714  169.5209 C.ar    1  UNL1        0.0917
      7 CL        142.8113  140.2526  170.7784 Cl      1  UNL1       -0.0791
      8 C         139.5564  139.9276  165.7485 C.ar    1  UNL1        0.0397
      9 C         139.2317  138.6763  164.9877 C.ar    1  UNL1        0.1216
     10 N         138.3991  139.0588  163.8000 N.ar    1  UNL1       -0.1674
     11 N         138.2092  140.5465  163.8269 N.ar    1  UNL1       -0.2451
     12 C         138.9244  141.0834  165.0311 C.ar    1  UNL1        0.0970
     13 C         137.4392  141.3553  162.8253 C.3     1  UNL1        0.1532
     14 C         137.9625  142.6869  162.3751 C.2     1  UNL1        0.0269
     15 C         137.7205  144.0038  163.0513 C.2     1  UNL1        0.1171
     16 N         138.4282  145.0663  162.2637 N.2     1  UNL1       -0.1513
     17 N         139.1076  144.4061  161.1008 N.2     1  UNL1       -0.1698
     18 C         138.8198  142.9355  161.1696 C.3     1  UNL1        0.1748
     19 O         140.0668  141.4607  170.6870 O.3     1  UNL1       -0.4228
     20 F         138.7709  143.5616  171.4975 F       1  UNL1       -0.1550
     21 C         139.8721  142.9480  170.6845 C.3     1  UNL1        0.5087
     22 F         140.7786  143.8218  169.8690 F       1  UNL1       -0.1550
@<TRIPOS>BOND
     1    20    21    1
     2    21    22    1
     3    21    19    1
     4    19     1    1
     5     1     2   ar
     6     2     3   ar
     7     3     8    1
     8     8     9   ar
     9     9    10   ar
    10    10    11   ar
    11    11    13    1
    12    13    14    1
    13    14    15    2
    14    15    16    1
    15    16    17    2
    16    17    18    1
    17    11    12   ar
    18     3     4   ar
    19     4     5   ar
    20     5     6   ar
    21     6     7    1
    22     6     1   ar
    23    12     8   ar
    24    18    14    1
@<TRIPOS>MOLECULE
*****
 22 24 0 0 0
SMALL
GASTEIGER

@<TRIPOS>ATOM
      1 C         138.8773  139.6047  167.5189 C.ar    1  UNL1        0.1547
      2 C         139.8581  140.6124  166.9968 C.ar    1  UNL1        0.0381
      3 C         140.2087  140.6319  165.5384 C.ar    1  UNL1        0.0061
      4 C         139.5785  139.6437  164.6023 C.ar    1  UNL1        0.0012
      5 C         138.5978  138.6360  165.1245 C.ar    1  UNL1        0.0145
      6 C         138.2472  138.6165  166.5828 C.ar    1  UNL1        0.0917
      7 CL        137.2664  137.6088  167.1050 Cl      1  UNL1       -0.0791
      8 C         141.1895  141.6396  165.0163 C.ar    1  UNL1        0.0397
      9 C         142.4957  142.0108  165.6533 C.ar    1  UNL1        0.1216
     10 N         143.1497  143.0536  164.7962 N.ar    1  UNL1       -0.1674
     11 N         142.2476  143.3270  163.6292 N.ar    1  UNL1       -0.2451
     12 C         141.0361  142.4530  163.7653 C.ar    1  UNL1        0.0970
     13 C         142.5108  144.3029  162.5210 C.3     1  UNL1        0.1532
     14 C         141.3635  144.9369  161.7918 C.2     1  UNL1        0.0269
     15 C         141.0590  144.7909  160.3303 C.2     1  UNL1        0.1171
     16 N         139.8266  145.5920  160.0312 N.2     1  UNL1       -0.1513
     17 N         139.3694  146.2331  161.3079 N.2     1  UNL1       -0.1698
     18 C         140.3193  145.8282  162.3960 C.3     1  UNL1        0.1748
     19 O         138.5267  139.5852  168.9773 O.3     1  UNL1       -0.4228
     20 F         139.0637  141.7989  170.2268 F       1  UNL1       -0.1550
     21 C         139.3607  140.3531  169.9595 C.3     1  UNL1        0.5087
     22 F         140.4918  139.6752  170.6744 F       1  UNL1       -0.1550
@<TRIPOS>BOND
     1    20    21    1
     2    21    22    1
     3    21    19    1
     4    19     1    1
     5     1     2   ar
     6     2     3   ar
     7     3     8    1
     8     8     9   ar
     9     9    10   ar
    10    10    11   ar
    11    11    13    1
    12    13    14    1
    13    14    15    2
    14    15    16    1
    15    16    17    2
    16    17    18    1
    17    11    12   ar
    18     3     4   ar
    19     4     5   ar
    20     5     6   ar
    21     6     7    1
    22     6     1   ar
    23    12     8   ar
    24    18    14    1
@<TRIPOS>MOLECULE
*****
 22 24 0 0 0
SMALL
GASTEIGER

@<TRIPOS>ATOM
      1 C         142.8054  141.1970  168.9435 C.ar    1  UNL1        0.1547
      2 C         142.9500  142.1155  167.7664 C.ar    1  UNL1        0.0381
      3 C         142.9908  141.5529  166.3766 C.ar    1  UNL1        0.0061
      4 C         142.8870  140.0717  166.1637 C.ar    1  UNL1        0.0012
      5 C         142.7425  139.1532  167.3407 C.ar    1  UNL1        0.0145
      6 C         142.7017  139.7159  168.7306 C.ar    1  UNL1        0.0917
      7 CL        142.5571  138.7973  169.9076 Cl      1  UNL1       -0.0791
      8 C         143.1354  142.4715  165.1995 C.ar    1  UNL1        0.0397
      9 C         144.4216  143.0401  164.6776 C.ar    1  UNL1        0.1216
     10 N         144.1002  143.9027  163.4933 N.ar    1  UNL1       -0.1674
     11 N         142.6154  143.8672  163.2832 N.ar    1  UNL1       -0.2451
     12 C         142.0191  142.9827  164.3377 C.ar    1  UNL1        0.0970
     13 C         141.8596  144.5895  162.2076 C.3     1  UNL1        0.1532
     14 C         140.3766  144.4041  162.0793 C.2     1  UNL1        0.0269
     15 C         139.3249  145.1593  162.8366 C.2     1  UNL1        0.1171
     16 N         137.9833  144.6530  162.3965 N.2     1  UNL1       -0.1513
     17 N         138.2058  143.5848  161.3672 N.2     1  UNL1       -0.1698
     18 C         139.6850  143.4310  161.1711 C.3     1  UNL1        0.1748
     19 O         142.7646  141.7597  170.3333 O.3     1  UNL1       -0.4228
     20 F         143.7176  144.0041  171.2302 F       1  UNL1       -0.1550
     21 C         142.6276  143.2390  170.5399 C.3     1  UNL1        0.5087
     22 F         141.4006  143.9534  170.0560 F       1  UNL1       -0.1550
@<TRIPOS>BOND
     1    20    21    1
     2    21    22    1
     3    21    19    1
     4    19     1    1
     5     1     2   ar
     6     2     3   ar
     7     3     8    1
     8     8     9   ar
     9     9    10   ar
    10    10    11   ar
    11    11    13    1
    12    13    14    1
    13    14    15    2
    14    15    16    1
    15    16    17    2
    16    17    18    1
    17    11    12   ar
    18     3     4   ar
    19     4     5   ar
    20     5     6   ar
    21     6     7    1
    22     6     1   ar
    23    12     8   ar
    24    18    14    1
@<TRIPOS>MOLECULE
*****
 22 24 0 0 0
SMALL
GASTEIGER

@<TRIPOS>ATOM
      1 C         138.2504  140.1652  162.8970 C.ar    1  UNL1        0.1547
      2 C         139.1974  140.5382  163.9988 C.ar    1  UNL1        0.0381
      3 C         140.0354  139.4825  164.6570 C.ar    1  UNL1        0.0061
      4 C         139.9263  138.0538  164.2135 C.ar    1  UNL1        0.0012
      5 C         138.9793  137.6808  163.1117 C.ar    1  UNL1        0.0145
      6 C         138.1413  138.7365  162.4535 C.ar    1  UNL1        0.0917
      7 CL        137.1943  138.3634  161.3517 Cl      1  UNL1       -0.0791
      8 C         140.9825  139.8556  165.7588 C.ar    1  UNL1        0.0397
      9 C         142.1642  139.0524  166.2154 C.ar    1  UNL1        0.1216
     10 N         142.8261  139.7978  167.3362 N.ar    1  UNL1       -0.1674
     11 N         142.0535  141.0617  167.5724 N.ar    1  UNL1       -0.2451
     12 C         140.9141  141.0974  166.5975 C.ar    1  UNL1        0.0970
     13 C         142.3655  142.1064  168.6025 C.3     1  UNL1        0.1532
     14 C         141.4012  142.3681  169.7213 C.2     1  UNL1        0.0269
     15 C         141.4161  141.7114  171.0698 C.2     1  UNL1        0.1171
     16 N         140.2769  142.2698  171.8700 N.2     1  UNL1       -0.1513
     17 N         139.5579  143.2716  171.0159 N.2     1  UNL1       -0.1698
     18 C         140.2527  143.3324  169.6880 C.3     1  UNL1        0.1748
     19 O         137.4124  141.2210  162.2388 O.3     1  UNL1       -0.4228
     20 F         138.8748  143.1382  161.2717 F       1  UNL1       -0.1550
     21 C         137.8570  142.6533  162.2611 C.3     1  UNL1        0.5087
     22 F         137.2837  143.6010  163.2728 F       1  UNL1       -0.1550
@<TRIPOS>BOND
     1    20    21    1
     2    21    22    1
     3    21    19    1
     4    19     1    1
     5     1     2   ar
     6     2     3   ar
     7     3     8    1
     8     8     9   ar
     9     9    10   ar
    10    10    11   ar
    11    11    13    1
    12    13    14    1
    13    14    15    2
    14    15    16    1
    15    16    17    2
    16    17    18    1
    17    11    12   ar
    18     3     4   ar
    19     4     5   ar
    20     5     6   ar
    21     6     7    1
    22     6     1   ar
    23    12     8   ar
    24    18    14    1
@<TRIPOS>MOLECULE
*****
 22 24 0 0 0
SMALL
GASTEIGER

@<TRIPOS>ATOM
      1 C         139.4176  140.1637  167.8847 C.ar    1  UNL1        0.1547
      2 C         140.2785  140.7719  166.8176 C.ar    1  UNL1        0.0381
      3 C         141.1421  141.9565  167.1352 C.ar    1  UNL1        0.0061
      4 C         141.1447  142.5330  168.5200 C.ar    1  UNL1        0.0012
      5 C         140.2838  141.9248  169.5871 C.ar    1  UNL1        0.0145
      6 C         139.4202  140.7402  169.2695 C.ar    1  UNL1        0.0917
      7 CL        138.5592  140.1320  170.3368 Cl      1  UNL1       -0.0791
      8 C         142.0030  142.5647  166.0679 C.ar    1  UNL1        0.0397
      9 C         143.5004  142.5053  166.0028 C.ar    1  UNL1        0.1216
     10 N         143.9405  143.2429  164.7731 N.ar    1  UNL1       -0.1674
     11 N         142.7151  143.7582  164.0782 N.ar    1  UNL1       -0.2451
     12 C         141.5177  143.3390  164.8784 C.ar    1  UNL1        0.0970
     13 C         142.6913  144.5531  162.8063 C.3     1  UNL1        0.1532
     14 C         141.4000  144.7495  162.0688 C.2     1  UNL1        0.0269
     15 C         140.4129  145.8554  162.2983 C.2     1  UNL1        0.1171
     16 N         139.2719  145.6640  161.3436 N.2     1  UNL1       -0.1513
     17 N         139.5539  144.4398  160.5240 N.2     1  UNL1       -0.1698
     18 C         140.8691  143.8746  160.9721 C.3     1  UNL1        0.1748
     19 O         138.5540  138.9791  167.5671 O.3     1  UNL1       -0.4228
     20 F         138.5636  137.2250  165.6506 F       1  UNL1       -0.1550
     21 C         138.2772  138.6141  166.1388 C.3     1  UNL1        0.5087
     22 F         137.7141  139.6383  165.1985 F       1  UNL1       -0.1550
@<TRIPOS>BOND
     1    20    21    1
     2    21    22    1
     3    21    19    1
     4    19     1    1
     5     1     2   ar
     6     2     3   ar
     7     3     8    1
     8     8     9   ar
     9     9    10   ar
    10    10    11   ar
    11    11    13    1
    12    13    14    1
    13    14    15    2
    14    15    16    1
    15    16    17    2
    16    17    18    1
    17    11    12   ar
    18     3     4   ar
    19     4     5   ar
    20     5     6   ar
    21     6     7    1
    22     6     1   ar
    23    12     8   ar
    24    18    14    1
@<TRIPOS>MOLECULE
*****
 22 24 0 0 0
SMALL
GASTEIGER

@<TRIPOS>ATOM
      1 C         141.1542  140.6964  168.8852 C.ar    1  UNL1        0.1547
      2 C         141.3445  141.1776  167.4773 C.ar    1  UNL1        0.0381
      3 C         142.5281  142.0311  167.1299 C.ar    1  UNL1        0.0061
      4 C         143.5214  142.4034  168.1904 C.ar    1  UNL1        0.0012
      5 C         143.3311  141.9222  169.5983 C.ar    1  UNL1        0.0145
      6 C         142.1475  141.0687  169.9457 C.ar    1  UNL1        0.0917
      7 CL        141.9572  140.5875  171.3537 Cl      1  UNL1       -0.0791
      8 C         142.7184  142.5123  165.7219 C.ar    1  UNL1        0.0397
      9 C         144.0315  142.6721  165.0147 C.ar    1  UNL1        0.1216
     10 N         143.7536  143.1767  163.6297 N.ar    1  UNL1       -0.1674
     11 N         142.2687  143.3288  163.4810 N.ar    1  UNL1       -0.2451
     12 C         141.6290  142.9182  164.7741 C.ar    1  UNL1        0.0970
     13 C         141.5499  143.8075  162.2546 C.3     1  UNL1        0.1532
     14 C         140.0504  143.8309  162.2254 C.2     1  UNL1        0.0269
     15 C         139.1649  142.8042  161.5836 C.2     1  UNL1        0.1171
     16 N         137.7403  143.2237  161.7944 N.2     1  UNL1       -0.1513
     17 N         137.7453  144.5098  162.5664 N.2     1  UNL1       -0.1698
     18 C         139.1730  144.8850  162.8328 C.3     1  UNL1        0.1748
     19 O         139.9706  139.8430  169.2325 O.3     1  UNL1       -0.4228
     20 F         137.5699  139.6170  170.1996 F       1  UNL1       -0.1550
     21 C         138.7920  140.4462  169.9374 C.3     1  UNL1        0.5087
     22 F         138.8355  141.8788  170.3802 F       1  UNL1       -0.1550
@<TRIPOS>BOND
     1    20    21    1
     2    21    22    1
     3    21    19    1
     4    19     1    1
     5     1     2   ar
     6     2     3   ar
     7     3     8    1
     8     8     9   ar
     9     9    10   ar
    10    10    11   ar
    11    11    13    1
    12    13    14    1
    13    14    15    2
    14    15    16    1
    15    16    17    2
    16    17    18    1
    17    11    12   ar
    18     3     4   ar
    19     4     5   ar
    20     5     6   ar
    21     6     7    1
    22     6     1   ar
    23    12     8   ar
    24    18    14    1
@<TRIPOS>MOLECULE
*****
 22 24 0 0 0
SMALL
GASTEIGER

@<TRIPOS>ATOM
      1 C         140.5129  142.2322  167.7576 C.ar    1  UNL1        0.1547
      2 C         140.2004  143.1122  166.5838 C.ar    1  UNL1        0.0381
      3 C         139.4433  142.5597  165.4127 C.ar    1  UNL1        0.0061
      4 C         138.9987  141.1272  165.4153 C.ar    1  UNL1        0.0012
      5 C         139.3112  140.2471  166.5891 C.ar    1  UNL1        0.0145
      6 C         140.0682  140.7996  167.7602 C.ar    1  UNL1        0.0917
      7 CL        140.3807  139.9195  168.9341 Cl      1  UNL1       -0.0791
      8 C         139.1308  143.4399  164.2388 C.ar    1  UNL1        0.0397
      9 C         137.7665  143.7066  163.6753 C.ar    1  UNL1        0.1216
     10 N         137.9203  144.6393  162.5107 N.ar    1  UNL1       -0.1674
     11 N         139.3797  144.9491  162.3544 N.ar    1  UNL1       -0.2451
     12 C         140.1278  144.2078  163.4225 C.ar    1  UNL1        0.0970
     13 C         139.9847  145.8432  161.3130 C.3     1  UNL1        0.1532
     14 C         140.8786  145.2655  160.2561 C.2     1  UNL1        0.0269
     15 C         142.0315  144.3345  160.4888 C.2     1  UNL1        0.1171
     16 N         142.6420  144.0108  159.1575 N.2     1  UNL1       -0.1513
     17 N         141.8665  144.7418  158.1019 N.2     1  UNL1       -0.1698
     18 C         140.7766  145.5172  158.7809 C.3     1  UNL1        0.1748
     19 O         141.2699  142.7847  168.9287 O.3     1  UNL1       -0.4228
     20 F         139.9961  142.6404  171.1884 F       1  UNL1       -0.1550
     21 C         140.5326  143.4557  170.0494 C.3     1  UNL1        0.5087
     22 F         140.3318  144.9422  170.0311 F       1  UNL1       -0.1550
@<TRIPOS>BOND
     1    20    21    1
     2    21    22    1
     3    21    19    1
     4    19     1    1
     5     1     2   ar
     6     2     3   ar
     7     3     8    1
     8     8     9   ar
     9     9    10   ar
    10    10    11   ar
    11    11    13    1
    12    13    14    1
    13    14    15    2
    14    15    16    1
    15    16    17    2
    16    17    18    1
    17    11    12   ar
    18     3     4   ar
    19     4     5   ar
    20     5     6   ar
    21     6     7    1
    22     6     1   ar
    23    12     8   ar
    24    18    14    1
