@<TRIPOS>MOLECULE
*****
 44 47 0 0 0
SMALL
GASTEIGER

@<TRIPOS>ATOM
      1 C         141.3646  140.8687  162.4684 C.3     1  UNL1        0.0808
      2 C         141.4002  140.6315  163.9491 C.ar    1  UNL1        0.0375
      3 C         141.0297  141.7354  164.8947 C.ar    1  UNL1        0.0023
      4 C         141.0653  141.4982  166.3753 C.ar    1  UNL1        0.0181
      5 C         140.6948  142.6022  167.3209 C.ar    1  UNL1        0.0082
      6 C         140.7304  142.3649  168.8016 C.ar    1  UNL1        0.0347
      7 BR        140.3598  143.4688  169.7471 Br      1  UNL1       -0.0490
      8 C         141.1365  141.0238  169.3367 C.ar    1  UNL1        0.0082
      9 C         141.5070  139.9199  168.3912 C.ar    1  UNL1        0.0197
     10 C         141.4714  140.1570  166.9105 C.ar    1  UNL1        0.0844
     11 N         141.8420  139.0531  165.9650 N.ar    1  UNL1       -0.2119
     12 C         141.8063  139.2904  164.4842 C.ar    1  UNL1        0.2211
     13 O         142.1769  138.1864  163.5387 O.3     1  UNL1       -0.4563
     14 C         141.0360  137.2131  163.5722 C.3     1  UNL1        0.2542
     15 C         140.2309  140.3271  161.6491 C.ar    1  UNL1        0.0245
     16 C         138.8135  140.5941  162.0608 C.ar    1  UNL1        0.0200
     17 C         137.6798  140.0524  161.2415 C.ar    1  UNL1        0.1019
     18 N         137.9635  139.2437  160.0104 N.ar    1  UNL1       -0.2076
     19 C         139.3810  138.9766  159.5987 C.ar    1  UNL1        0.2598
     20 C         140.5147  139.5183  160.4181 C.ar    1  UNL1        0.1879
     21 O         139.6647  138.1679  158.3677 O.3     1  UNL1       -0.4541
     22 C         139.6366  138.8216  157.0180 C.3     1  UNL1        0.2543
     23 O         141.9321  139.2513  160.0064 O.3     1  UNL1       -0.4670
     24 C         142.5066  137.8726  160.1458 C.3     1  UNL1        0.2527
     25 C         142.4627  141.6477  161.8070 C.3     1  UNL1        0.1162
     26 O         143.4274  140.5373  162.1011 O.3     1  UNL1       -0.3820
     27 H         144.3049  140.7729  161.7612 H       1  UNL1        0.2107
     28 C         140.1969  144.2131  159.7984 C.ar    1  UNL1        0.2272
     29 C         141.1616  143.1027  160.0924 C.ar    1  UNL1        0.0559
     30 C         141.4980  142.7580  161.5130 C.ar    1  UNL1        0.0117
     31 C         140.8698  143.5237  162.6395 C.ar    1  UNL1        0.0560
     32 C         139.9051  144.6340  162.3454 C.ar    1  UNL1        0.2319
     33 N         139.5686  144.9787  160.9249 N.ar    1  UNL1       -0.1766
     34 C         140.3546  145.8418  157.7804 C.3     1  UNL1        0.2542
     35 O         139.8604  144.5577  158.3778 O.3     1  UNL1       -0.4561
     36 O         139.2768  145.3997  163.4720 O.3     1  UNL1       -0.4067
     37 C         138.6449  144.6655  164.6172 C.3     1  UNL1        0.5097
     38 F         138.0733  143.2949  164.4055 F       1  UNL1       -0.1549
     39 F         138.5846  145.3018  165.9743 F       1  UNL1       -0.1549
     40 C         143.5608  142.4266  161.1456 C.3     1  UNL1        0.0491
     41 C         144.5022  143.2484  161.9755 C.3     1  UNL1        0.0750
     42 N         144.8324  142.8248  163.3760 N.3     1  UNL1       -0.2702
     43 C         144.1384  143.4708  164.5383 C.3     1  UNL1        0.0897
     44 C         145.8567  141.7552  163.6143 C.3     1  UNL1        0.0897
@<TRIPOS>BOND
     1    34    35    1
     2    35    28    1
     3    28    29   ar
     4    29    30   ar
     5    30    25    1
     6    25    26    1
     7    25    40    1
     8    40    41    1
     9    41    42    1
    10    42    43    1
    11    42    44    1
    12    25     1    1
    13     1     2    1
    14     2     3   ar
    15     3     4   ar
    16     4     5   ar
    17     5     6   ar
    18     6     7    1
    19     6     8   ar
    20     8     9   ar
    21     9    10   ar
    22    10    11   ar
    23    11    12   ar
    24    12    13    1
    25    13    14    1
    26     1    15    1
    27    15    16   ar
    28    16    17   ar
    29    17    18   ar
    30    18    19   ar
    31    19    21    1
    32    21    22    1
    33    19    20   ar
    34    20    23    1
    35    23    24    1
    36    30    31   ar
    37    31    32   ar
    38    32    36    1
    39    36    37    1
    40    37    38    1
    41    37    39    1
    42    32    33   ar
    43    33    28   ar
    44    12     2   ar
    45    20    15   ar
    46    10     4   ar
    47    26    27    1
@<TRIPOS>MOLECULE
*****
 44 47 0 0 0
SMALL
GASTEIGER

@<TRIPOS>ATOM
      1 C         140.7132  140.6754  163.1908 C.3     1  UNL1        0.0808
      2 C         140.3793  140.5750  164.6498 C.ar    1  UNL1        0.0375
      3 C         140.6440  141.7364  165.5614 C.ar    1  UNL1        0.0023
      4 C         140.3101  141.6361  167.0203 C.ar    1  UNL1        0.0181
      5 C         140.5748  142.7975  167.9319 C.ar    1  UNL1        0.0082
      6 C         140.2409  142.6971  169.3909 C.ar    1  UNL1        0.0347
      7 BR        140.5056  143.8585  170.3025 Br      1  UNL1       -0.0490
      8 C         139.6423  141.4353  169.9381 C.ar    1  UNL1        0.0082
      9 C         139.3776  140.2739  169.0265 C.ar    1  UNL1        0.0197
     10 C         139.7115  140.3743  167.5677 C.ar    1  UNL1        0.0844
     11 N         139.4468  139.2128  166.6561 N.ar    1  UNL1       -0.2119
     12 C         139.7807  139.3132  165.1971 C.ar    1  UNL1        0.2211
     13 O         139.5160  138.1518  164.2855 O.3     1  UNL1       -0.4563
     14 C         140.6067  137.1579  164.5549 C.3     1  UNL1        0.2542
     15 C         141.8151  139.8369  162.6142 C.ar    1  UNL1        0.0245
     16 C         143.1371  139.7487  163.3176 C.ar    1  UNL1        0.0200
     17 C         144.2390  138.9102  162.7410 C.ar    1  UNL1        0.1019
     18 N         144.0190  138.1597  161.4609 N.ar    1  UNL1       -0.2076
     19 C         142.6971  138.2478  160.7575 C.ar    1  UNL1        0.2598
     20 C         141.5951  139.0865  161.3342 C.ar    1  UNL1        0.1879
     21 O         142.4771  137.4974  159.4775 O.3     1  UNL1       -0.4541
     22 C         142.6465  138.1951  158.1605 C.3     1  UNL1        0.2543
     23 O         140.2732  139.1746  160.6308 O.3     1  UNL1       -0.4670
     24 C         139.2764  138.0617  160.7653 C.3     1  UNL1        0.2527
     25 C         139.9451  141.6144  162.3086 C.3     1  UNL1        0.1162
     26 O         138.6990  140.8119  162.5393 O.3     1  UNL1       -0.3820
     27 H         137.9621  141.2114  162.0512 H       1  UNL1        0.2107
     28 C         142.9904  143.3636  160.4602 C.ar    1  UNL1        0.2272
     29 C         141.7443  142.5611  160.6910 C.ar    1  UNL1        0.0559
     30 C         141.1912  142.4168  162.0778 C.ar    1  UNL1        0.0117
     31 C         141.8843  143.0750  163.2338 C.ar    1  UNL1        0.0560
     32 C         143.1304  143.8775  163.0030 C.ar    1  UNL1        0.2319
     33 N         143.6834  144.0218  161.6162 N.ar    1  UNL1       -0.1766
     34 C         144.5731  142.5391  158.5720 C.3     1  UNL1        0.2542
     35 O         143.5434  143.5079  159.0733 O.3     1  UNL1       -0.4561
     36 O         143.8234  144.5357  164.1592 O.3     1  UNL1       -0.4067
     37 C         144.4154  143.6985  165.2540 C.3     1  UNL1        0.5097
     38 F         145.4339  144.2897  166.1829 F       1  UNL1       -0.1549
     39 F         143.9888  142.2700  165.4199 F       1  UNL1       -0.1549
     40 C         139.1770  142.5534  161.4263 C.3     1  UNL1        0.0491
     41 C         138.2399  143.5551  162.0332 C.3     1  UNL1        0.0750
     42 N         138.7813  144.6850  162.8580 N.3     1  UNL1       -0.2702
     43 C         139.4902  145.8269  162.1923 C.3     1  UNL1        0.0897
     44 C         138.6137  144.6728  164.3486 C.3     1  UNL1        0.0897
@<TRIPOS>BOND
     1    34    35    1
     2    35    28    1
     3    28    29   ar
     4    29    30   ar
     5    30    25    1
     6    25    26    1
     7    25    40    1
     8    40    41    1
     9    41    42    1
    10    42    43    1
    11    42    44    1
    12    25     1    1
    13     1     2    1
    14     2     3   ar
    15     3     4   ar
    16     4     5   ar
    17     5     6   ar
    18     6     7    1
    19     6     8   ar
    20     8     9   ar
    21     9    10   ar
    22    10    11   ar
    23    11    12   ar
    24    12    13    1
    25    13    14    1
    26     1    15    1
    27    15    16   ar
    28    16    17   ar
    29    17    18   ar
    30    18    19   ar
    31    19    21    1
    32    21    22    1
    33    19    20   ar
    34    20    23    1
    35    23    24    1
    36    30    31   ar
    37    31    32   ar
    38    32    36    1
    39    36    37    1
    40    37    38    1
    41    37    39    1
    42    32    33   ar
    43    33    28   ar
    44    12     2   ar
    45    20    15   ar
    46    10     4   ar
    47    26    27    1
@<TRIPOS>MOLECULE
*****
 44 47 0 0 0
SMALL
GASTEIGER

@<TRIPOS>ATOM
      1 C         141.7938  142.1728  163.2660 C.3     1  UNL1        0.0808
      2 C         142.1951  142.2459  164.7095 C.ar    1  UNL1        0.0375
      3 C         141.3623  141.5650  165.7549 C.ar    1  UNL1        0.0023
      4 C         141.7635  141.6380  167.1984 C.ar    1  UNL1        0.0181
      5 C         140.9307  140.9571  168.2437 C.ar    1  UNL1        0.0082
      6 C         141.3320  141.0302  169.6872 C.ar    1  UNL1        0.0347
      7 BR        140.4992  140.3493  170.7326 Br      1  UNL1       -0.0490
      8 C         142.5661  141.7842  170.0853 C.ar    1  UNL1        0.0082
      9 C         143.3989  142.4651  169.0400 C.ar    1  UNL1        0.0197
     10 C         142.9977  142.3920  167.5965 C.ar    1  UNL1        0.0844
     11 N         143.8305  143.0729  166.5512 N.ar    1  UNL1       -0.2119
     12 C         143.4292  142.9998  165.1077 C.ar    1  UNL1        0.2211
     13 O         144.2620  143.6807  164.0623 O.3     1  UNL1       -0.4563
     14 C         143.8600  145.1256  164.0900 C.3     1  UNL1        0.2542
     15 C         141.0740  143.3240  162.6285 C.ar    1  UNL1        0.0245
     16 C         139.8052  143.8445  163.2362 C.ar    1  UNL1        0.0200
     17 C         139.0854  144.9957  162.5986 C.ar    1  UNL1        0.1019
     18 N         139.6344  145.6266  161.3533 N.ar    1  UNL1       -0.2076
     19 C         140.9032  145.1061  160.7456 C.ar    1  UNL1        0.2598
     20 C         141.6230  143.9548  161.3833 C.ar    1  UNL1        0.1879
     21 O         141.4522  145.7369  159.5004 O.3     1  UNL1       -0.4541
     22 C         140.7186  145.5919  158.2002 C.3     1  UNL1        0.2543
     23 O         142.8918  143.4344  160.7756 O.3     1  UNL1       -0.4670
     24 C         142.8605  142.7616  159.4352 C.3     1  UNL1        0.2527
     25 C         142.1123  140.9484  162.4601 C.3     1  UNL1        0.1162
     26 O         143.5697  141.3012  162.5002 O.3     1  UNL1       -0.3820
     27 H         144.0780  140.6308  162.0175 H       1  UNL1        0.2107
     28 C         138.4542  140.2728  161.0776 C.ar    1  UNL1        0.2272
     29 C         139.9116  140.6256  161.1176 C.ar    1  UNL1        0.0559
     30 C         140.6550  140.5957  162.4201 C.ar    1  UNL1        0.0117
     31 C         139.9410  140.2130  163.6825 C.ar    1  UNL1        0.0560
     32 C         138.4836  139.8602  163.6424 C.ar    1  UNL1        0.2319
     33 N         137.7402  139.8901  162.3400 N.ar    1  UNL1       -0.1766
     34 C         138.4600  140.4817  158.4879 C.3     1  UNL1        0.2542
     35 O         137.7108  140.3027  159.7750 O.3     1  UNL1       -0.4561
     36 O         137.7696  139.4775  164.9049 O.3     1  UNL1       -0.4067
     37 C         138.4246  138.5503  165.8854 C.3     1  UNL1        0.5097
     38 F         139.0001  137.2471  165.4160 F       1  UNL1       -0.1549
     39 F         138.5042  138.9264  167.3353 F       1  UNL1       -0.1549
     40 C         142.4309  139.7241  161.6542 C.3     1  UNL1        0.0491
     41 C         143.1366  138.5664  162.2960 C.3     1  UNL1        0.0750
     42 N         143.3766  138.5618  163.7766 N.3     1  UNL1       -0.2702
     43 C         144.6595  139.1074  164.3302 C.3     1  UNL1        0.0897
     44 C         142.3337  138.0114  164.7038 C.3     1  UNL1        0.0897
@<TRIPOS>BOND
     1    34    35    1
     2    35    28    1
     3    28    29   ar
     4    29    30   ar
     5    30    25    1
     6    25    26    1
     7    25    40    1
     8    40    41    1
     9    41    42    1
    10    42    43    1
    11    42    44    1
    12    25     1    1
    13     1     2    1
    14     2     3   ar
    15     3     4   ar
    16     4     5   ar
    17     5     6   ar
    18     6     7    1
    19     6     8   ar
    20     8     9   ar
    21     9    10   ar
    22    10    11   ar
    23    11    12   ar
    24    12    13    1
    25    13    14    1
    26     1    15    1
    27    15    16   ar
    28    16    17   ar
    29    17    18   ar
    30    18    19   ar
    31    19    21    1
    32    21    22    1
    33    19    20   ar
    34    20    23    1
    35    23    24    1
    36    30    31   ar
    37    31    32   ar
    38    32    36    1
    39    36    37    1
    40    37    38    1
    41    37    39    1
    42    32    33   ar
    43    33    28   ar
    44    12     2   ar
    45    20    15   ar
    46    10     4   ar
    47    26    27    1
@<TRIPOS>MOLECULE
*****
 44 47 0 0 0
SMALL
GASTEIGER

@<TRIPOS>ATOM
      1 C         141.4696  140.7193  163.0294 C.3     1  UNL1        0.0808
      2 C         141.8069  140.7818  164.4898 C.ar    1  UNL1        0.0375
      3 C         141.0879  141.7471  165.3849 C.ar    1  UNL1        0.0023
      4 C         141.4250  141.8095  166.8451 C.ar    1  UNL1        0.0181
      5 C         140.7061  142.7748  167.7403 C.ar    1  UNL1        0.0082
      6 C         141.0433  142.8373  169.2006 C.ar    1  UNL1        0.0347
      7 BR        140.3243  143.8026  170.0957 Br      1  UNL1       -0.0490
      8 C         142.0994  141.9344  169.7657 C.ar    1  UNL1        0.0082
      9 C         142.8184  140.9691  168.8706 C.ar    1  UNL1        0.0197
     10 C         142.4812  140.9067  167.4103 C.ar    1  UNL1        0.0844
     11 N         143.2002  139.9414  166.5152 N.ar    1  UNL1       -0.2119
     12 C         142.8630  139.8789  165.0549 C.ar    1  UNL1        0.2211
     13 O         143.5820  138.9136  164.1597 O.3     1  UNL1       -0.4563
     14 C         144.9340  139.5123  163.9073 C.3     1  UNL1        0.2542
     15 C         142.2651  141.5195  162.0411 C.ar    1  UNL1        0.0245
     16 C         142.3953  143.0043  162.2098 C.ar    1  UNL1        0.0200
     17 C         143.1908  143.8045  161.2215 C.ar    1  UNL1        0.1019
     18 N         143.8562  143.1200  160.0644 N.ar    1  UNL1       -0.2076
     19 C         143.7260  141.6352  159.8957 C.ar    1  UNL1        0.2598
     20 C         142.9304  140.8350  160.8841 C.ar    1  UNL1        0.1879
     21 O         144.3912  140.9506  158.7387 O.3     1  UNL1       -0.4541
     22 C         143.8459  141.1213  157.3519 C.3     1  UNL1        0.2543
     23 O         142.8002  139.3502  160.7154 O.3     1  UNL1       -0.4670
     24 C         142.0104  138.7920  159.5687 C.3     1  UNL1        0.2527
     25 C         140.3369  139.8566  162.5575 C.3     1  UNL1        0.1162
     26 O         141.1246  138.6297  162.9097 O.3     1  UNL1       -0.3820
     27 H         140.6038  137.8392  162.6979 H       1  UNL1        0.2107
     28 C         138.4787  142.6334  160.4158 C.ar    1  UNL1        0.2272
     29 C         139.2664  141.4064  160.7680 C.ar    1  UNL1        0.0559
     30 C         139.5492  141.0836  162.2053 C.ar    1  UNL1        0.0117
     31 C         139.0442  141.9878  163.2904 C.ar    1  UNL1        0.0560
     32 C         138.2565  143.2148  162.9382 C.ar    1  UNL1        0.2319
     33 N         137.9738  143.5376  161.5009 N.ar    1  UNL1       -0.1766
     34 C         138.2551  141.8742  157.9412 C.3     1  UNL1        0.2542
     35 O         138.1960  142.9562  158.9785 O.3     1  UNL1       -0.4561
     36 O         137.7515  144.1190  164.0234 O.3     1  UNL1       -0.4067
     37 C         138.7212  144.8086  164.9367 C.3     1  UNL1        0.5097
     38 F         138.2289  145.4789  166.1850 F       1  UNL1       -0.1549
     39 F         140.1832  144.8279  164.6016 F       1  UNL1       -0.1549
     40 C         139.2042  138.9940  162.0856 C.3     1  UNL1        0.0491
     41 C         138.3121  138.3158  163.0828 C.3     1  UNL1        0.0750
     42 N         138.6447  138.3686  164.5445 N.3     1  UNL1       -0.2702
     43 C         138.1408  139.5020  165.3879 C.3     1  UNL1        0.0897
     44 C         139.4813  137.2878  165.1627 C.3     1  UNL1        0.0897
@<TRIPOS>BOND
     1    34    35    1
     2    35    28    1
     3    28    29   ar
     4    29    30   ar
     5    30    25    1
     6    25    26    1
     7    25    40    1
     8    40    41    1
     9    41    42    1
    10    42    43    1
    11    42    44    1
    12    25     1    1
    13     1     2    1
    14     2     3   ar
    15     3     4   ar
    16     4     5   ar
    17     5     6   ar
    18     6     7    1
    19     6     8   ar
    20     8     9   ar
    21     9    10   ar
    22    10    11   ar
    23    11    12   ar
    24    12    13    1
    25    13    14    1
    26     1    15    1
    27    15    16   ar
    28    16    17   ar
    29    17    18   ar
    30    18    19   ar
    31    19    21    1
    32    21    22    1
    33    19    20   ar
    34    20    23    1
    35    23    24    1
    36    30    31   ar
    37    31    32   ar
    38    32    36    1
    39    36    37    1
    40    37    38    1
    41    37    39    1
    42    32    33   ar
    43    33    28   ar
    44    12     2   ar
    45    20    15   ar
    46    10     4   ar
    47    26    27    1
@<TRIPOS>MOLECULE
*****
 44 47 0 0 0
SMALL
GASTEIGER

@<TRIPOS>ATOM
      1 C         141.6516  141.8380  162.5924 C.3     1  UNL1        0.0808
      2 C         142.0138  141.8897  164.0472 C.ar    1  UNL1        0.0375
      3 C         141.0204  141.4541  165.0833 C.ar    1  UNL1        0.0023
      4 C         141.3825  141.5058  166.5379 C.ar    1  UNL1        0.0181
      5 C         140.3892  141.0702  167.5740 C.ar    1  UNL1        0.0082
      6 C         140.7513  141.1219  169.0288 C.ar    1  UNL1        0.0347
      7 BR        139.7580  140.6863  170.0649 Br      1  UNL1       -0.0490
      8 C         142.1068  141.6091  169.4474 C.ar    1  UNL1        0.0082
      9 C         143.1002  142.0447  168.4113 C.ar    1  UNL1        0.0197
     10 C         142.7381  141.9931  166.9566 C.ar    1  UNL1        0.0844
     11 N         143.7314  142.4287  165.9205 N.ar    1  UNL1       -0.2119
     12 C         143.3693  142.3770  164.4657 C.ar    1  UNL1        0.2211
     13 O         144.3626  142.8126  163.4296 O.3     1  UNL1       -0.4563
     14 C         145.5353  141.8874  163.5665 C.3     1  UNL1        0.2542
     15 C         142.4878  141.0365  161.6394 C.ar    1  UNL1        0.0245
     16 C         142.6876  139.5678  161.8695 C.ar    1  UNL1        0.0200
     17 C         143.5237  138.7662  160.9165 C.ar    1  UNL1        0.1019
     18 N         144.1601  139.4333  159.7332 N.ar    1  UNL1       -0.2076
     19 C         143.9603  140.9020  159.5031 C.ar    1  UNL1        0.2598
     20 C         143.1241  141.7036  160.4562 C.ar    1  UNL1        0.1879
     21 O         144.5966  141.5692  158.3199 O.3     1  UNL1       -0.4541
     22 C         144.8400  140.7906  157.0611 C.3     1  UNL1        0.2543
     23 O         142.9242  143.1723  160.2260 O.3     1  UNL1       -0.4670
     24 C         142.1004  143.6442  159.0647 C.3     1  UNL1        0.2527
     25 C         140.4533  142.5880  162.0908 C.3     1  UNL1        0.1162
     26 O         141.0937  143.8824  162.4960 O.3     1  UNL1       -0.3820
     27 H         140.5012  144.6187  162.2775 H       1  UNL1        0.2107
     28 C         138.9054  139.7156  159.8318 C.ar    1  UNL1        0.2272
     29 C         139.5458  141.0100  160.2370 C.ar    1  UNL1        0.0559
     30 C         139.8129  141.2935  161.6855 C.ar    1  UNL1        0.0117
     31 C         139.4395  140.2825  162.7288 C.ar    1  UNL1        0.0560
     32 C         138.7991  138.9881  162.3236 C.ar    1  UNL1        0.2319
     33 N         138.5320  138.7046  160.8750 N.ar    1  UNL1       -0.1766
     34 C         138.5662  140.5617  157.3988 C.3     1  UNL1        0.2542
     35 O         138.6383  139.4321  158.3831 O.3     1  UNL1       -0.4561
     36 O         138.4257  137.9771  163.3669 O.3     1  UNL1       -0.4067
     37 C         138.8375  138.1852  164.7942 C.3     1  UNL1        0.5097
     38 F         140.0956  137.5531  165.3116 F       1  UNL1       -0.1549
     39 F         137.9912  139.0254  165.7041 F       1  UNL1       -0.1549
     40 C         139.2550  143.3379  161.5891 C.3     1  UNL1        0.0491
     41 C         138.5284  144.2848  162.4977 C.3     1  UNL1        0.0750
     42 N         138.3542  143.9468  163.9488 N.3     1  UNL1       -0.2702
     43 C         137.5693  142.7322  164.3470 C.3     1  UNL1        0.0897
     44 C         138.9649  144.8235  165.0016 C.3     1  UNL1        0.0897
@<TRIPOS>BOND
     1    34    35    1
     2    35    28    1
     3    28    29   ar
     4    29    30   ar
     5    30    25    1
     6    25    26    1
     7    25    40    1
     8    40    41    1
     9    41    42    1
    10    42    43    1
    11    42    44    1
    12    25     1    1
    13     1     2    1
    14     2     3   ar
    15     3     4   ar
    16     4     5   ar
    17     5     6   ar
    18     6     7    1
    19     6     8   ar
    20     8     9   ar
    21     9    10   ar
    22    10    11   ar
    23    11    12   ar
    24    12    13    1
    25    13    14    1
    26     1    15    1
    27    15    16   ar
    28    16    17   ar
    29    17    18   ar
    30    18    19   ar
    31    19    21    1
    32    21    22    1
    33    19    20   ar
    34    20    23    1
    35    23    24    1
    36    30    31   ar
    37    31    32   ar
    38    32    36    1
    39    36    37    1
    40    37    38    1
    41    37    39    1
    42    32    33   ar
    43    33    28   ar
    44    12     2   ar
    45    20    15   ar
    46    10     4   ar
    47    26    27    1
@<TRIPOS>MOLECULE
*****
 44 47 0 0 0
SMALL
GASTEIGER

@<TRIPOS>ATOM
      1 C         141.3367  140.9221  162.3949 C.3     1  UNL1        0.0808
      2 C         141.3548  140.6556  163.8710 C.ar    1  UNL1        0.0375
      3 C         141.0180  141.7539  164.8356 C.ar    1  UNL1        0.0023
      4 C         141.0362  141.4875  166.3116 C.ar    1  UNL1        0.0181
      5 C         140.6994  142.5858  167.2761 C.ar    1  UNL1        0.0082
      6 C         140.7176  142.3193  168.7522 C.ar    1  UNL1        0.0347
      7 BR        140.3808  143.4176  169.7168 Br      1  UNL1       -0.0490
      8 C         141.0725  140.9546  169.2637 C.ar    1  UNL1        0.0082
      9 C         141.4093  139.8564  168.2991 C.ar    1  UNL1        0.0197
     10 C         141.3912  140.1228  166.8231 C.ar    1  UNL1        0.0844
     11 N         141.7280  139.0245  165.8586 N.ar    1  UNL1       -0.2119
     12 C         141.7098  139.2910  164.3825 C.ar    1  UNL1        0.2211
     13 O         142.0466  138.1927  163.4179 O.3     1  UNL1       -0.4563
     14 C         140.8926  137.2354  163.4621 C.3     1  UNL1        0.2542
     15 C         140.2014  140.4160  161.5554 C.ar    1  UNL1        0.0245
     16 C         138.7850  140.6969  161.9614 C.ar    1  UNL1        0.0200
     17 C         137.6497  140.1907  161.1219 C.ar    1  UNL1        0.1019
     18 N         137.9308  139.4037  159.8762 N.ar    1  UNL1       -0.2076
     19 C         139.3472  139.1228  159.4702 C.ar    1  UNL1        0.2598
     20 C         140.4825  139.6289  160.3098 C.ar    1  UNL1        0.1879
     21 O         139.6283  138.3357  158.2246 O.3     1  UNL1       -0.4541
     22 C         139.7473  139.0381  156.9046 C.3     1  UNL1        0.2543
     23 O         141.8989  139.3480  159.9038 O.3     1  UNL1       -0.4670
     24 C         142.4435  137.9535  159.9976 C.3     1  UNL1        0.2527
     25 C         142.4538  141.6947  161.7585 C.3     1  UNL1        0.1162
     26 O         143.4009  140.5701  162.0558 O.3     1  UNL1       -0.3820
     27 H         144.2862  140.7988  161.7319 H       1  UNL1        0.2107
     28 C         139.9040  144.6893  162.2882 C.ar    1  UNL1        0.2272
     29 C         140.8511  143.5648  162.5855 C.ar    1  UNL1        0.0559
     30 C         141.5067  142.8192  161.4612 C.ar    1  UNL1        0.0117
     31 C         141.2152  143.1982  160.0394 C.ar    1  UNL1        0.0560
     32 C         140.2682  144.3228  159.7421 C.ar    1  UNL1        0.2319
     33 N         139.6125  145.0683  160.8665 N.ar    1  UNL1       -0.1766
     34 C         138.8769  144.7139  164.6745 C.3     1  UNL1        0.2542
     35 O         139.2484  145.4349  163.4127 O.3     1  UNL1       -0.4561
     36 O         139.9767  144.7018  158.3203 O.3     1  UNL1       -0.4067
     37 C         140.8533  145.6926  157.6134 C.3     1  UNL1        0.5097
     38 F         142.3183  145.7569  157.9290 F       1  UNL1       -0.1549
     39 F         140.2649  146.6192  156.5910 F       1  UNL1       -0.1549
     40 C         143.5710  142.4673  161.1221 C.3     1  UNL1        0.0491
     41 C         144.4800  143.3071  161.9696 C.3     1  UNL1        0.0750
     42 N         144.7966  142.8865  163.3742 N.3     1  UNL1       -0.2702
     43 C         145.7871  141.7879  163.6230 C.3     1  UNL1        0.0897
     44 C         144.1225  143.5645  164.5301 C.3     1  UNL1        0.0897
@<TRIPOS>BOND
     1    34    35    1
     2    35    28    1
     3    28    29   ar
     4    29    30   ar
     5    30    25    1
     6    25    26    1
     7    25    40    1
     8    40    41    1
     9    41    42    1
    10    42    43    1
    11    42    44    1
    12    25     1    1
    13     1     2    1
    14     2     3   ar
    15     3     4   ar
    16     4     5   ar
    17     5     6   ar
    18     6     7    1
    19     6     8   ar
    20     8     9   ar
    21     9    10   ar
    22    10    11   ar
    23    11    12   ar
    24    12    13    1
    25    13    14    1
    26     1    15    1
    27    15    16   ar
    28    16    17   ar
    29    17    18   ar
    30    18    19   ar
    31    19    21    1
    32    21    22    1
    33    19    20   ar
    34    20    23    1
    35    23    24    1
    36    30    31   ar
    37    31    32   ar
    38    32    36    1
    39    36    37    1
    40    37    38    1
    41    37    39    1
    42    32    33   ar
    43    33    28   ar
    44    12     2   ar
    45    20    15   ar
    46    10     4   ar
    47    26    27    1
@<TRIPOS>MOLECULE
*****
 44 47 0 0 0
SMALL
GASTEIGER

@<TRIPOS>ATOM
      1 C         141.5273  141.1849  162.1865 C.3     1  UNL1        0.0808
      2 C         141.8289  140.7007  163.5739 C.ar    1  UNL1        0.0375
      3 C         141.8762  141.6740  164.7142 C.ar    1  UNL1        0.0023
      4 C         142.1779  141.1898  166.1015 C.ar    1  UNL1        0.0181
      5 C         142.2252  142.1631  167.2418 C.ar    1  UNL1        0.0082
      6 C         142.5268  141.6789  168.6292 C.ar    1  UNL1        0.0347
      7 BR        142.5741  142.6522  169.7695 Br      1  UNL1       -0.0490
      8 C         142.7811  140.2214  168.8761 C.ar    1  UNL1        0.0082
      9 C         142.7338  139.2481  167.7357 C.ar    1  UNL1        0.0197
     10 C         142.4322  139.7322  166.3484 C.ar    1  UNL1        0.0844
     11 N         142.3848  138.7589  165.2081 N.ar    1  UNL1       -0.2119
     12 C         142.0832  139.2432  163.8208 C.ar    1  UNL1        0.2211
     13 O         142.0359  138.2699  162.6804 O.3     1  UNL1       -0.4563
     14 C         140.8613  137.3762  162.9481 C.3     1  UNL1        0.2542
     15 C         140.2387  140.8009  161.5217 C.ar    1  UNL1        0.0245
     16 C         138.9342  141.0286  162.2264 C.ar    1  UNL1        0.0200
     17 C         137.6456  140.6445  161.5616 C.ar    1  UNL1        0.1019
     18 N         137.6614  140.0328  160.1921 N.ar    1  UNL1       -0.2076
     19 C         138.9659  139.8051  159.4874 C.ar    1  UNL1        0.2598
     20 C         140.2545  140.1892  160.1523 C.ar    1  UNL1        0.1879
     21 O         138.9817  139.1934  158.1179 O.3     1  UNL1       -0.4541
     22 C         138.7814  140.0574  156.9082 C.3     1  UNL1        0.2543
     23 O         141.5590  139.9615  159.4476 O.3     1  UNL1       -0.4670
     24 C         142.0670  138.5650  159.2428 C.3     1  UNL1        0.2527
     25 C         142.5143  142.0532  161.4641 C.3     1  UNL1        0.1162
     26 O         143.4898  140.9143  161.4281 O.3     1  UNL1       -0.3820
     27 H         144.3018  141.1982  160.9799 H       1  UNL1        0.2107
     28 C         140.1540  145.0085  160.2619 C.ar    1  UNL1        0.2272
     29 C         141.1296  143.8696  160.2259 C.ar    1  UNL1        0.0559
     30 C         141.5387  143.1920  161.5000 C.ar    1  UNL1        0.0117
     31 C         140.9723  143.6533  162.8101 C.ar    1  UNL1        0.0560
     32 C         139.9968  144.7922  162.8461 C.ar    1  UNL1        0.2319
     33 N         139.5876  145.4698  161.5720 N.ar    1  UNL1       -0.1766
     34 C         140.6981  145.7469  157.8311 C.3     1  UNL1        0.2542
     35 O         139.7449  145.6861  158.9877 O.3     1  UNL1       -0.4561
     36 O         139.4304  145.2535  164.1563 O.3     1  UNL1       -0.4067
     37 C         138.8387  144.2580  165.1096 C.3     1  UNL1        0.5097
     38 F         139.5564  143.9205  166.3828 F       1  UNL1       -0.1549
     39 F         137.5292  143.5999  164.7898 F       1  UNL1       -0.1549
     40 C         143.5013  142.9214  160.7416 C.3     1  UNL1        0.0491
     41 C         144.5204  142.3017  159.8320 C.3     1  UNL1        0.0750
     42 N         144.2016  142.0911  158.3815 N.3     1  UNL1       -0.2702
     43 C         144.5884  140.8083  157.7072 C.3     1  UNL1        0.0897
     44 C         143.4960  143.1634  157.6053 C.3     1  UNL1        0.0897
@<TRIPOS>BOND
     1    34    35    1
     2    35    28    1
     3    28    29   ar
     4    29    30   ar
     5    30    25    1
     6    25    26    1
     7    25    40    1
     8    40    41    1
     9    41    42    1
    10    42    43    1
    11    42    44    1
    12    25     1    1
    13     1     2    1
    14     2     3   ar
    15     3     4   ar
    16     4     5   ar
    17     5     6   ar
    18     6     7    1
    19     6     8   ar
    20     8     9   ar
    21     9    10   ar
    22    10    11   ar
    23    11    12   ar
    24    12    13    1
    25    13    14    1
    26     1    15    1
    27    15    16   ar
    28    16    17   ar
    29    17    18   ar
    30    18    19   ar
    31    19    21    1
    32    21    22    1
    33    19    20   ar
    34    20    23    1
    35    23    24    1
    36    30    31   ar
    37    31    32   ar
    38    32    36    1
    39    36    37    1
    40    37    38    1
    41    37    39    1
    42    32    33   ar
    43    33    28   ar
    44    12     2   ar
    45    20    15   ar
    46    10     4   ar
    47    26    27    1
@<TRIPOS>MOLECULE
*****
 44 47 0 0 0
SMALL
GASTEIGER

@<TRIPOS>ATOM
      1 C         140.4363  141.2964  161.6322 C.3     1  UNL1        0.0808
      2 C         140.1522  140.9147  163.0548 C.ar    1  UNL1        0.0375
      3 C         141.1812  141.1624  164.1176 C.ar    1  UNL1        0.0023
      4 C         140.8972  140.7807  165.5401 C.ar    1  UNL1        0.0181
      5 C         141.9263  141.0285  166.6030 C.ar    1  UNL1        0.0082
      6 C         141.6421  140.6467  168.0255 C.ar    1  UNL1        0.0347
      7 BR        142.6712  140.8945  169.0884 Br      1  UNL1       -0.0490
      8 C         140.3290  140.0172  168.3852 C.ar    1  UNL1        0.0082
      9 C         139.3000  139.7695  167.3224 C.ar    1  UNL1        0.0197
     10 C         139.5840  140.1512  165.8999 C.ar    1  UNL1        0.0844
     11 N         138.5549  139.9034  164.8370 N.ar    1  UNL1       -0.2119
     12 C         138.8390  140.2852  163.4145 C.ar    1  UNL1        0.2211
     13 O         137.8100  140.0374  162.3516 O.3     1  UNL1       -0.4563
     14 C         137.8630  138.5670  162.0596 C.3     1  UNL1        0.2542
     15 C         140.7501  140.2355  160.6194 C.ar    1  UNL1        0.0245
     16 C         141.9708  139.3795  160.7835 C.ar    1  UNL1        0.0200
     17 C         142.2846  138.3186  159.7706 C.ar    1  UNL1        0.1019
     18 N         141.3776  138.1137  158.5935 N.ar    1  UNL1       -0.2076
     19 C         140.1569  138.9697  158.4294 C.ar    1  UNL1        0.2598
     20 C         139.8431  140.0306  159.4424 C.ar    1  UNL1        0.1879
     21 O         139.2499  138.7648  157.2524 O.3     1  UNL1       -0.4541
     22 C         139.5215  137.6550  156.2805 C.3     1  UNL1        0.2543
     23 O         138.6223  140.8867  159.2782 O.3     1  UNL1       -0.4670
     24 C         138.5675  141.9132  158.1858 C.3     1  UNL1        0.2527
     25 C         140.4066  142.7391  161.2226 C.3     1  UNL1        0.1162
     26 O         138.9373  142.7932  161.5196 O.3     1  UNL1       -0.3820
     27 H         138.6024  143.6844  161.3339 H       1  UNL1        0.2107
     28 C         143.8268  142.7056  159.2100 C.ar    1  UNL1        0.2272
     29 C         142.3575  142.7597  159.5070 C.ar    1  UNL1        0.0559
     30 C         141.8759  142.6850  160.9256 C.ar    1  UNL1        0.0117
     31 C         142.8635  142.5563  162.0472 C.ar    1  UNL1        0.0560
     32 C         144.3328  142.5022  161.7501 C.ar    1  UNL1        0.2319
     33 N         144.8145  142.5769  160.3316 N.ar    1  UNL1       -0.1766
     34 C         143.3212  142.7620  156.6622 C.3     1  UNL1        0.2542
     35 O         144.3085  142.7803  157.7914 O.3     1  UNL1       -0.4561
     36 O         145.3205  142.3735  162.8718 O.3     1  UNL1       -0.4067
     37 C         144.8668  141.8963  164.2195 C.3     1  UNL1        0.5097
     38 F         144.6035  142.8856  165.3159 F       1  UNL1       -0.1549
     39 F         144.6763  140.4298  164.4709 F       1  UNL1       -0.1549
     40 C         140.3768  144.1818  160.8130 C.3     1  UNL1        0.0491
     41 C         139.9043  145.2265  161.7803 C.3     1  UNL1        0.0750
     42 N         140.2890  145.1375  163.2274 N.3     1  UNL1       -0.2702
     43 C         139.2594  144.7752  164.2562 C.3     1  UNL1        0.0897
     44 C         141.7034  145.4109  163.6456 C.3     1  UNL1        0.0897
@<TRIPOS>BOND
     1    34    35    1
     2    35    28    1
     3    28    29   ar
     4    29    30   ar
     5    30    25    1
     6    25    26    1
     7    25    40    1
     8    40    41    1
     9    41    42    1
    10    42    43    1
    11    42    44    1
    12    25     1    1
    13     1     2    1
    14     2     3   ar
    15     3     4   ar
    16     4     5   ar
    17     5     6   ar
    18     6     7    1
    19     6     8   ar
    20     8     9   ar
    21     9    10   ar
    22    10    11   ar
    23    11    12   ar
    24    12    13    1
    25    13    14    1
    26     1    15    1
    27    15    16   ar
    28    16    17   ar
    29    17    18   ar
    30    18    19   ar
    31    19    21    1
    32    21    22    1
    33    19    20   ar
    34    20    23    1
    35    23    24    1
    36    30    31   ar
    37    31    32   ar
    38    32    36    1
    39    36    37    1
    40    37    38    1
    41    37    39    1
    42    32    33   ar
    43    33    28   ar
    44    12     2   ar
    45    20    15   ar
    46    10     4   ar
    47    26    27    1
@<TRIPOS>MOLECULE
*****
 44 47 0 0 0
SMALL
GASTEIGER

@<TRIPOS>ATOM
      1 C         140.5268  140.8622  161.3732 C.3     1  UNL1        0.0808
      2 C         140.4321  140.0683  160.1040 C.ar    1  UNL1        0.0375
      3 C         141.5231  139.1061  159.7380 C.ar    1  UNL1        0.0023
      4 C         141.4283  138.3122  158.4689 C.ar    1  UNL1        0.0181
      5 C         142.5193  137.3501  158.1029 C.ar    1  UNL1        0.0082
      6 C         142.4246  136.5562  156.8337 C.ar    1  UNL1        0.0347
      7 BR        143.5156  135.5940  156.4677 Br      1  UNL1       -0.0490
      8 C         141.2388  136.7244  155.9306 C.ar    1  UNL1        0.0082
      9 C         140.1478  137.6866  156.2966 C.ar    1  UNL1        0.0197
     10 C         140.2425  138.4805  157.5657 C.ar    1  UNL1        0.0844
     11 N         139.1515  139.4427  157.9317 N.ar    1  UNL1       -0.2119
     12 C         139.2463  140.2366  159.2009 C.ar    1  UNL1        0.2211
     13 O         138.1553  141.1987  159.5669 O.3     1  UNL1       -0.4563
     14 C         138.1524  142.2478  158.4948 C.3     1  UNL1        0.2542
     15 C         140.6749  140.1578  162.6892 C.ar    1  UNL1        0.0245
     16 C         142.0114  140.1109  163.3686 C.ar    1  UNL1        0.0200
     17 C         142.1595  139.4064  164.6846 C.ar    1  UNL1        0.1019
     18 N         140.9710  138.7489  165.3212 N.ar    1  UNL1       -0.2076
     19 C         139.6345  138.7958  164.6418 C.ar    1  UNL1        0.2598
     20 C         139.4865  139.5003  163.3258 C.ar    1  UNL1        0.1879
     21 O         138.4461  138.1384  165.2784 O.3     1  UNL1       -0.4541
     22 C         137.9363  138.6293  166.6009 C.3     1  UNL1        0.2543
     23 O         138.1500  139.5472  162.6464 O.3     1  UNL1       -0.4670
     24 C         137.6846  138.3812  161.8255 C.3     1  UNL1        0.2527
     25 C         140.4735  142.3605  161.3264 C.3     1  UNL1        0.1162
     26 O         139.0915  142.3296  161.9085 O.3     1  UNL1       -0.3820
     27 H         138.7611  143.2364  162.0054 H       1  UNL1        0.2107
     28 C         143.4300  142.7018  158.7010 C.ar    1  UNL1        0.2272
     29 C         142.0479  142.6709  159.2831 C.ar    1  UNL1        0.0559
     30 C         141.8556  142.3915  160.7442 C.ar    1  UNL1        0.0117
     31 C         143.0454  142.1430  161.6232 C.ar    1  UNL1        0.0560
     32 C         144.4275  142.1740  161.0411 C.ar    1  UNL1        0.2319
     33 N         144.6198  142.4534  159.5800 N.ar    1  UNL1       -0.1766
     34 C         144.7174  142.2910  156.4820 C.3     1  UNL1        0.2542
     35 O         143.6223  142.9813  157.2398 O.3     1  UNL1       -0.4561
     36 O         145.6173  141.9255  161.9202 O.3     1  UNL1       -0.4067
     37 C         145.4251  141.6487  163.3818 C.3     1  UNL1        0.5097
     38 F         145.1319  142.7763  164.3265 F       1  UNL1       -0.1549
     39 F         145.5261  140.2442  163.8988 F       1  UNL1       -0.1549
     40 C         140.4203  143.8588  161.2795 C.3     1  UNL1        0.0491
     41 C         139.5836  144.6110  162.2717 C.3     1  UNL1        0.0750
     42 N         140.0282  144.7166  163.7004 N.3     1  UNL1       -0.2702
     43 C         139.0101  144.7730  164.8005 C.3     1  UNL1        0.0897
     44 C         141.4910  144.7660  164.0289 C.3     1  UNL1        0.0897
@<TRIPOS>BOND
     1    34    35    1
     2    35    28    1
     3    28    29   ar
     4    29    30   ar
     5    30    25    1
     6    25    26    1
     7    25    40    1
     8    40    41    1
     9    41    42    1
    10    42    43    1
    11    42    44    1
    12    25     1    1
    13     1     2    1
    14     2     3   ar
    15     3     4   ar
    16     4     5   ar
    17     5     6   ar
    18     6     7    1
    19     6     8   ar
    20     8     9   ar
    21     9    10   ar
    22    10    11   ar
    23    11    12   ar
    24    12    13    1
    25    13    14    1
    26     1    15    1
    27    15    16   ar
    28    16    17   ar
    29    17    18   ar
    30    18    19   ar
    31    19    21    1
    32    21    22    1
    33    19    20   ar
    34    20    23    1
    35    23    24    1
    36    30    31   ar
    37    31    32   ar
    38    32    36    1
    39    36    37    1
    40    37    38    1
    41    37    39    1
    42    32    33   ar
    43    33    28   ar
    44    12     2   ar
    45    20    15   ar
    46    10     4   ar
    47    26    27    1
