@<TRIPOS>MOLECULE
*****
 43 49 0 0 0
SMALL
GASTEIGER

@<TRIPOS>ATOM
      1 N         139.1820  142.2438  158.8767 N.am    1  UNL1       -0.2222
      2 C         139.3263  141.7217  160.2756 C.2     1  UNL1        0.3219
      3 O         138.8834  140.3743  160.7638 O.2     1  UNL1       -0.2512
      4 N         139.9912  142.7836  161.1004 N.am    1  UNL1       -0.1907
      5 C         140.2578  143.9620  160.2114 C.2     1  UNL1        0.2529
      6 O         140.9100  145.2481  160.6241 O.2     1  UNL1       -0.2724
      7 C         139.7577  143.6284  158.8371 C.3     1  UNL1        0.1391
      8 C         139.2141  143.1558  157.5214 C.3     1  UNL1        0.0449
      9 C         139.2784  144.0498  156.3187 C.3     1  UNL1        0.0746
     10 N         139.8864  145.4164  156.4316 N.3     1  UNL1       -0.2676
     11 C         140.4300  145.8890  157.7473 C.3     1  UNL1        0.0746
     12 C         140.3657  144.9950  158.9500 C.3     1  UNL1        0.0449
     13 C         136.4978  140.9424  156.2593 C.ar    1  UNL1        0.2293
     14 C         137.1103  141.6760  157.4154 C.ar    1  UNL1        0.0924
     15 C         138.5695  141.5102  157.7206 C.ar    1  UNL1        0.1453
     16 N         139.4163  140.6107  156.8697 N.ar    1  UNL1       -0.2084
     17 C         138.8039  139.8771  155.7137 C.ar    1  UNL1        0.2027
     18 N         137.3446  140.0429  155.4084 N.ar    1  UNL1       -0.1892
     19 C         134.0555  140.0685  156.4041 C.3     1  UNL1        0.2542
     20 O         135.0387  141.1081  155.9540 O.3     1  UNL1       -0.4560
     21 C         140.3300  142.6845  162.5582 C.ar    1  UNL1        0.0622
     22 C         141.3744  141.7125  163.0211 C.ar    1  UNL1        0.0154
     23 C         141.7132  141.6134  164.4790 C.ar    1  UNL1        0.0010
     24 C         141.0075  142.4864  165.4740 C.ar    1  UNL1       -0.0035
     25 C         139.9630  143.4584  165.0111 C.ar    1  UNL1        0.0010
     26 C         139.6243  143.5575  163.5532 C.ar    1  UNL1        0.0154
     27 C         141.3463  142.3873  166.9319 C.2     1  UNL1       -0.0161
     28 C         142.7781  142.2670  167.3627 C.2     1  UNL1       -0.0038
     29 C         143.1168  142.1679  168.8206 C.2     1  UNL1        0.0025
     30 C         142.0238  142.1891  169.8476 C.2     1  UNL1        0.0366
     31 C         142.0522  142.1092  171.3452 C.2     1  UNL1        0.1233
     32 N         140.6378  142.1801  171.8401 N.2     1  UNL1       -0.1467
     33 N         139.7355  142.3039  170.6483 N.2     1  UNL1       -0.1520
     34 C         140.5920  142.3094  169.4168 C.2     1  UNL1        0.0864
     35 C         140.2533  142.4085  167.9591 C.3     1  UNL1        0.0739
     36 C         139.9507  146.3104  155.2288 C.3     1  UNL1        0.1183
     37 C         139.5138  147.7415  155.3338 C.ar    1  UNL1        0.0712
     38 N         138.7217  148.1985  156.5227 N.ar    1  UNL1       -0.2471
     39 C         138.2848  149.6297  156.6277 C.ar    1  UNL1        0.0985
     40 C         138.6401  150.6038  155.5437 C.ar    1  UNL1        0.0203
     41 C         139.4323  150.1467  154.3548 C.ar    1  UNL1       -0.0015
     42 C         139.8691  148.7156  154.2498 C.ar    1  UNL1       -0.0069
     43 C         140.6613  148.2585  153.0609 C.3     1  UNL1        0.0323
@<TRIPOS>BOND
     1    19    20    1
     2    20    13    1
     3    13    14   ar
     4    14    15   ar
     5    15     1    1
     6     1     2   am
     7     2     3    2
     8     2     4   am
     9     4    21    1
    10    21    22   ar
    11    22    23   ar
    12    23    24   ar
    13    24    27    1
    14    27    28    2
    15    28    29    1
    16    29    30    2
    17    30    31    1
    18    31    32    2
    19    32    33    1
    20    33    34    2
    21    34    35    1
    22    24    25   ar
    23    25    26   ar
    24     4     5   am
    25     5     6    2
    26     5     7    1
    27     7     8    1
    28     8     9    1
    29     9    10    1
    30    10    36    1
    31    36    37    1
    32    37    38   ar
    33    38    39   ar
    34    39    40   ar
    35    40    41   ar
    36    41    42   ar
    37    42    43    1
    38    10    11    1
    39    11    12    1
    40    15    16   ar
    41    16    17   ar
    42    17    18   ar
    43    18    13   ar
    44     7     1    1
    45    42    37   ar
    46    26    21   ar
    47    12     7    1
    48    35    27    1
    49    34    30    1
@<TRIPOS>MOLECULE
*****
 43 49 0 0 0
SMALL
GASTEIGER

@<TRIPOS>ATOM
      1 N         140.3196  143.6652  158.8733 N.am    1  UNL1       -0.2222
      2 C         140.8896  143.9142  160.2383 C.2     1  UNL1        0.3219
      3 O         141.8640  144.9946  160.6033 O.2     1  UNL1       -0.2512
      4 N         140.3140  142.8930  161.1743 N.am    1  UNL1       -0.1907
      5 C         139.3883  142.0129  160.3878 C.2     1  UNL1        0.2529
      6 O         138.5979  140.8584  160.9283 O.2     1  UNL1       -0.2724
      7 C         139.3918  142.4902  158.9656 C.3     1  UNL1        0.1391
      8 C         139.4971  143.0777  157.5895 C.3     1  UNL1        0.0449
      9 C         138.7109  142.4841  156.4585 C.3     1  UNL1        0.0746
     10 N         137.8192  141.3030  156.7035 N.3     1  UNL1       -0.2676
     11 C         137.7139  140.7155  158.0796 C.3     1  UNL1        0.0746
     12 C         138.5002  141.3091  159.2106 C.3     1  UNL1        0.0449
     13 C         140.1364  146.4740  156.0757 C.ar    1  UNL1        0.2293
     14 C         139.8319  145.6863  157.3153 C.ar    1  UNL1        0.0924
     15 C         140.6241  144.4529  157.6336 C.ar    1  UNL1        0.1453
     16 N         141.7206  144.0073  156.7122 N.ar    1  UNL1       -0.2084
     17 C         142.0251  144.7949  155.4726 C.ar    1  UNL1        0.2027
     18 N         141.2329  146.0284  155.1543 N.ar    1  UNL1       -0.1892
     19 C         139.6395  148.4871  154.5104 C.3     1  UNL1        0.2542
     20 O         139.3443  147.7073  155.7573 O.3     1  UNL1       -0.4560
     21 C         140.6117  142.7730  162.6395 C.ar    1  UNL1        0.0622
     22 C         141.7262  141.8851  163.1081 C.ar    1  UNL1        0.0154
     23 C         142.0240  141.7651  164.5733 C.ar    1  UNL1        0.0010
     24 C         141.2073  142.5330  165.5700 C.ar    1  UNL1       -0.0035
     25 C         140.0928  143.4210  165.1014 C.ar    1  UNL1        0.0010
     26 C         139.7951  143.5409  163.6361 C.ar    1  UNL1        0.0154
     27 C         141.5051  142.4130  167.0352 C.2     1  UNL1       -0.0161
     28 C         142.9227  142.2662  167.5029 C.2     1  UNL1       -0.0038
     29 C         143.2205  142.1462  168.9682 C.2     1  UNL1        0.0025
     30 C         142.1006  142.1730  169.9657 C.2     1  UNL1        0.0366
     31 C         142.0873  142.0765  171.4625 C.2     1  UNL1        0.1233
     32 N         140.6613  142.1636  171.9200 N.2     1  UNL1       -0.1467
     33 N         139.7934  142.3139  170.7059 N.2     1  UNL1       -0.1520
     34 C         140.6829  142.3198  169.4980 C.2     1  UNL1        0.0864
     35 C         140.3851  142.4398  168.0328 C.3     1  UNL1        0.0739
     36 C         137.0329  140.7094  155.5723 C.3     1  UNL1        0.1183
     37 C         135.5336  140.7189  155.6149 C.ar    1  UNL1        0.0712
     38 N         134.8112  140.0496  156.7464 N.ar    1  UNL1       -0.2471
     39 C         133.3118  140.0592  156.7890 C.ar    1  UNL1        0.0985
     40 C         132.5349  140.7380  155.7002 C.ar    1  UNL1        0.0203
     41 C         133.2573  141.4072  154.5688 C.ar    1  UNL1       -0.0015
     42 C         134.7566  141.3977  154.5261 C.ar    1  UNL1       -0.0069
     43 C         135.4790  142.0670  153.3946 C.3     1  UNL1        0.0323
@<TRIPOS>BOND
     1    19    20    1
     2    20    13    1
     3    13    14   ar
     4    14    15   ar
     5    15     1    1
     6     1     2   am
     7     2     3    2
     8     2     4   am
     9     4    21    1
    10    21    22   ar
    11    22    23   ar
    12    23    24   ar
    13    24    27    1
    14    27    28    2
    15    28    29    1
    16    29    30    2
    17    30    31    1
    18    31    32    2
    19    32    33    1
    20    33    34    2
    21    34    35    1
    22    24    25   ar
    23    25    26   ar
    24     4     5   am
    25     5     6    2
    26     5     7    1
    27     7     8    1
    28     8     9    1
    29     9    10    1
    30    10    36    1
    31    36    37    1
    32    37    38   ar
    33    38    39   ar
    34    39    40   ar
    35    40    41   ar
    36    41    42   ar
    37    42    43    1
    38    10    11    1
    39    11    12    1
    40    15    16   ar
    41    16    17   ar
    42    17    18   ar
    43    18    13   ar
    44     7     1    1
    45    42    37   ar
    46    26    21   ar
    47    12     7    1
    48    35    27    1
    49    34    30    1
@<TRIPOS>MOLECULE
*****
 43 49 0 0 0
SMALL
GASTEIGER

@<TRIPOS>ATOM
      1 N         143.6973  141.0122  158.5512 N.am    1  UNL1       -0.2222
      2 C         143.5883  141.6121  159.9218 C.2     1  UNL1        0.3219
      3 O         143.8660  143.0412  160.2833 O.2     1  UNL1       -0.2512
      4 N         143.1530  140.5320  160.8673 N.am    1  UNL1       -0.1907
      5 C         142.9930  139.2646  160.0812 C.2     1  UNL1        0.2529
      6 O         142.5707  137.9340  160.6299 O.2     1  UNL1       -0.2724
      7 C         143.3293  139.5613  158.6497 C.3     1  UNL1        0.1391
      8 C         143.6928  140.0058  157.2640 C.3     1  UNL1        0.0449
      9 C         143.6660  139.0241  156.1302 C.3     1  UNL1        0.0746
     10 N         143.2755  137.5979  156.3822 N.3     1  UNL1       -0.2676
     11 C         142.9120  137.1534  157.7679 C.3     1  UNL1        0.0746
     12 C         142.9389  138.1351  158.9016 C.3     1  UNL1        0.0449
     13 C         145.9621  142.6377  155.7267 C.ar    1  UNL1        0.2293
     14 C         145.5564  141.9139  156.9763 C.ar    1  UNL1        0.0924
     15 C         144.1030  141.7360  157.3016 C.ar    1  UNL1        0.1453
     16 N         143.0552  142.2820  156.3774 N.ar    1  UNL1       -0.2084
     17 C         143.4608  143.0058  155.1279 C.ar    1  UNL1        0.2027
     18 N         144.9143  143.1837  154.8025 N.ar    1  UNL1       -0.1892
     19 C         148.3637  141.6629  155.5492 C.3     1  UNL1        0.2542
     20 O         147.4155  142.8157  155.4012 O.3     1  UNL1       -0.4560
     21 C         142.9189  140.6914  162.3402 C.ar    1  UNL1        0.0622
     22 C         143.8911  140.1069  163.3217 C.ar    1  UNL1        0.0154
     23 C         143.6570  140.2663  164.7948 C.ar    1  UNL1        0.0010
     24 C         142.4507  141.0101  165.2863 C.ar    1  UNL1       -0.0035
     25 C         141.4785  141.5946  164.3048 C.ar    1  UNL1        0.0010
     26 C         141.7127  141.4351  162.8318 C.ar    1  UNL1        0.0154
     27 C         142.2166  141.1695  166.7594 C.2     1  UNL1       -0.0161
     28 C         143.0231  142.1613  167.5440 C.2     1  UNL1       -0.0038
     29 C         142.7890  142.3207  169.0170 C.2     1  UNL1        0.0025
     30 C         141.7483  141.4881  169.7053 C.2     1  UNL1        0.0366
     31 C         141.2976  141.4251  171.1346 C.2     1  UNL1        0.1233
     32 N         140.2124  140.3941  171.2334 N.2     1  UNL1       -0.1467
     33 N         139.9925  139.8201  169.8652 N.2     1  UNL1       -0.1520
     34 C         140.9418  140.4963  168.9207 C.2     1  UNL1        0.0864
     35 C         141.1759  140.3369  167.4478 C.3     1  UNL1        0.0739
     36 C         143.2486  136.6162  155.2483 C.3     1  UNL1        0.1183
     37 C         142.9423  135.1720  155.5137 C.ar    1  UNL1        0.0712
     38 N         143.9469  134.3094  156.2185 N.ar    1  UNL1       -0.2471
     39 C         143.6405  132.8652  156.4839 C.ar    1  UNL1        0.0985
     40 C         142.3295  132.2836  156.0446 C.ar    1  UNL1        0.0203
     41 C         141.3249  133.1462  155.3399 C.ar    1  UNL1       -0.0015
     42 C         141.6312  134.5904  155.0744 C.ar    1  UNL1       -0.0069
     43 C         140.6266  135.4530  154.3697 C.3     1  UNL1        0.0323
@<TRIPOS>BOND
     1    19    20    1
     2    20    13    1
     3    13    14   ar
     4    14    15   ar
     5    15     1    1
     6     1     2   am
     7     2     3    2
     8     2     4   am
     9     4    21    1
    10    21    22   ar
    11    22    23   ar
    12    23    24   ar
    13    24    27    1
    14    27    28    2
    15    28    29    1
    16    29    30    2
    17    30    31    1
    18    31    32    2
    19    32    33    1
    20    33    34    2
    21    34    35    1
    22    24    25   ar
    23    25    26   ar
    24     4     5   am
    25     5     6    2
    26     5     7    1
    27     7     8    1
    28     8     9    1
    29     9    10    1
    30    10    36    1
    31    36    37    1
    32    37    38   ar
    33    38    39   ar
    34    39    40   ar
    35    40    41   ar
    36    41    42   ar
    37    42    43    1
    38    10    11    1
    39    11    12    1
    40    15    16   ar
    41    16    17   ar
    42    17    18   ar
    43    18    13   ar
    44     7     1    1
    45    42    37   ar
    46    26    21   ar
    47    12     7    1
    48    35    27    1
    49    34    30    1
@<TRIPOS>MOLECULE
*****
 43 49 0 0 0
SMALL
GASTEIGER

@<TRIPOS>ATOM
      1 N         138.6108  140.8855  158.6737 N.am    1  UNL1       -0.2222
      2 C         138.4657  141.4239  160.0663 C.2     1  UNL1        0.3219
      3 O         137.5348  142.5188  160.4957 O.2     1  UNL1       -0.2512
      4 N         139.4150  140.6750  160.9540 N.am    1  UNL1       -0.1907
      5 C         140.1468  139.6738  160.1101 C.2     1  UNL1        0.2529
      6 O         141.1921  138.7115  160.5910 O.2     1  UNL1       -0.2724
      7 C         139.6498  139.8039  158.7008 C.3     1  UNL1        0.1391
      8 C         139.0582  140.0478  157.3442 C.3     1  UNL1        0.0449
      9 C         139.5192  139.2384  156.1684 C.3     1  UNL1        0.0746
     10 N         140.5718  138.1852  156.3493 N.3     1  UNL1       -0.2676
     11 C         141.1634  137.9413  157.7059 C.3     1  UNL1        0.0746
     12 C         140.7024  138.7507  158.8817 C.3     1  UNL1        0.0449
     13 C         137.6113  142.9500  155.4351 C.ar    1  UNL1        0.2293
     14 C         138.3717  142.4878  156.6427 C.ar    1  UNL1        0.0924
     15 C         137.8504  141.3476  157.4661 C.ar    1  UNL1        0.1453
     16 N         136.5687  140.6695  157.0821 N.ar    1  UNL1       -0.2084
     17 C         135.8083  141.1316  155.8746 C.ar    1  UNL1        0.2027
     18 N         136.3296  142.2719  155.0510 N.ar    1  UNL1       -0.1892
     19 C         137.7083  145.4950  154.9222 C.3     1  UNL1        0.2542
     20 O         138.1325  144.0902  154.6116 O.3     1  UNL1       -0.4560
     21 C         139.6001  140.8896  162.4269 C.ar    1  UNL1        0.0622
     22 C         140.8771  141.4830  162.9438 C.ar    1  UNL1        0.0154
     23 C         141.0621  141.6976  164.4168 C.ar    1  UNL1        0.0010
     24 C         139.9702  141.3188  165.3730 C.ar    1  UNL1       -0.0035
     25 C         138.6931  140.7253  164.8561 C.ar    1  UNL1        0.0010
     26 C         138.5082  140.5108  163.3831 C.ar    1  UNL1        0.0154
     27 C         140.1552  141.5334  166.8460 C.2     1  UNL1       -0.0161
     28 C         140.4856  142.8998  167.3691 C.2     1  UNL1       -0.0038
     29 C         140.6707  143.1144  168.8422 C.2     1  UNL1        0.0025
     30 C         140.5253  141.9625  169.7919 C.2     1  UNL1        0.0366
     31 C         140.6491  141.8702  171.2839 C.2     1  UNL1        0.1233
     32 N         140.3952  140.4466  171.6829 N.2     1  UNL1       -0.1467
     33 N         140.1145  139.6592  170.4375 N.2     1  UNL1       -0.1520
     34 C         140.1948  140.5961  169.2687 C.2     1  UNL1        0.0864
     35 C         140.0098  140.3815  167.7958 C.3     1  UNL1        0.0739
     36 C         141.0328  137.3758  155.1735 C.3     1  UNL1        0.1183
     37 C         141.7691  136.0875  155.3922 C.ar    1  UNL1        0.0712
     38 N         141.0159  134.7909  155.4341 N.ar    1  UNL1       -0.2471
     39 C         141.7524  133.5025  155.6529 C.ar    1  UNL1        0.0985
     40 C         143.2419  133.5107  155.8297 C.ar    1  UNL1        0.0203
     41 C         143.9950  134.8072  155.7878 C.ar    1  UNL1       -0.0015
     42 C         143.2587  136.0956  155.5690 C.ar    1  UNL1       -0.0069
     43 C         144.0118  137.3921  155.5271 C.3     1  UNL1        0.0323
@<TRIPOS>BOND
     1    19    20    1
     2    20    13    1
     3    13    14   ar
     4    14    15   ar
     5    15     1    1
     6     1     2   am
     7     2     3    2
     8     2     4   am
     9     4    21    1
    10    21    22   ar
    11    22    23   ar
    12    23    24   ar
    13    24    27    1
    14    27    28    2
    15    28    29    1
    16    29    30    2
    17    30    31    1
    18    31    32    2
    19    32    33    1
    20    33    34    2
    21    34    35    1
    22    24    25   ar
    23    25    26   ar
    24     4     5   am
    25     5     6    2
    26     5     7    1
    27     7     8    1
    28     8     9    1
    29     9    10    1
    30    10    36    1
    31    36    37    1
    32    37    38   ar
    33    38    39   ar
    34    39    40   ar
    35    40    41   ar
    36    41    42   ar
    37    42    43    1
    38    10    11    1
    39    11    12    1
    40    15    16   ar
    41    16    17   ar
    42    17    18   ar
    43    18    13   ar
    44     7     1    1
    45    42    37   ar
    46    26    21   ar
    47    12     7    1
    48    35    27    1
    49    34    30    1
@<TRIPOS>MOLECULE
*****
 43 49 0 0 0
SMALL
GASTEIGER

@<TRIPOS>ATOM
      1 N         141.0555  143.6615  158.9087 N.am    1  UNL1       -0.2222
      2 C         140.6950  143.7535  160.3619 C.2     1  UNL1        0.3219
      3 O         139.4816  144.4295  160.9282 O.2     1  UNL1       -0.2512
      4 N         141.7609  143.0507  161.1493 N.am    1  UNL1       -0.1907
      5 C         142.7802  142.5245  160.1828 C.2     1  UNL1        0.2529
      6 O         144.0181  141.7557  160.5385 O.2     1  UNL1       -0.2724
      7 C         142.3443  142.9020  158.7980 C.3     1  UNL1        0.1391
      8 C         141.7839  143.3481  157.4801 C.3     1  UNL1        0.0449
      9 C         142.5093  143.0231  156.2081 C.3     1  UNL1        0.0746
     10 N         143.7951  142.2520  156.2540 N.3     1  UNL1       -0.2676
     11 C         144.3555  141.8059  157.5719 C.3     1  UNL1        0.0746
     12 C         143.6301  142.1309  158.8439 C.3     1  UNL1        0.0449
     13 C         139.7578  146.1874  156.1365 C.ar    1  UNL1        0.2293
     14 C         140.5473  145.6195  157.2784 C.ar    1  UNL1        0.0924
     15 C         140.2660  144.2294  157.7668 C.ar    1  UNL1        0.1453
     16 N         139.1950  143.4073  157.1132 N.ar    1  UNL1       -0.2084
     17 C         138.4054  143.9751  155.9713 C.ar    1  UNL1        0.2027
     18 N         138.6868  145.3652  155.4829 N.ar    1  UNL1       -0.1892
     19 C         138.9042  148.5154  155.3609 C.3     1  UNL1        0.2542
     20 O         140.0390  147.5774  155.6480 O.3     1  UNL1       -0.4560
     21 C         141.8006  142.9006  162.6412 C.ar    1  UNL1        0.0622
     22 C         142.9681  143.4334  163.4178 C.ar    1  UNL1        0.0154
     23 C         143.0077  143.2833  164.9098 C.ar    1  UNL1        0.0010
     24 C         141.8799  142.6003  165.6251 C.ar    1  UNL1       -0.0035
     25 C         140.7124  142.0675  164.8484 C.ar    1  UNL1        0.0010
     26 C         140.6728  142.2177  163.3565 C.ar    1  UNL1        0.0154
     27 C         141.9196  142.4502  167.1170 C.2     1  UNL1       -0.0161
     28 C         143.2296  142.2324  167.8144 C.2     1  UNL1       -0.0038
     29 C         143.2693  142.0823  169.3063 C.2     1  UNL1        0.0025
     30 C         141.9988  142.1500  170.1009 C.2     1  UNL1        0.0366
     31 C         141.7279  142.0374  171.5719 C.2     1  UNL1        0.1233
     32 N         140.2503  142.1856  171.7837 N.2     1  UNL1       -0.1467
     33 N         139.6081  142.3898  170.4437 N.2     1  UNL1       -0.1520
     34 C         140.6887  142.3678  169.4035 C.2     1  UNL1        0.0864
     35 C         140.6491  142.5179  167.9117 C.3     1  UNL1        0.0739
     36 C         144.5206  141.9270  154.9819 C.3     1  UNL1        0.1183
     37 C         145.3947  142.9585  154.3324 C.ar    1  UNL1        0.0712
     38 N         144.7835  144.0293  153.4783 N.ar    1  UNL1       -0.2471
     39 C         145.6577  145.0609  152.8288 C.ar    1  UNL1        0.0985
     40 C         147.1431  145.0215  153.0336 C.ar    1  UNL1        0.0203
     41 C         147.7544  143.9507  153.8878 C.ar    1  UNL1       -0.0015
     42 C         146.8802  142.9192  154.5372 C.ar    1  UNL1       -0.0069
     43 C         147.4915  141.8483  155.3914 C.3     1  UNL1        0.0323
@<TRIPOS>BOND
     1    19    20    1
     2    20    13    1
     3    13    14   ar
     4    14    15   ar
     5    15     1    1
     6     1     2   am
     7     2     3    2
     8     2     4   am
     9     4    21    1
    10    21    22   ar
    11    22    23   ar
    12    23    24   ar
    13    24    27    1
    14    27    28    2
    15    28    29    1
    16    29    30    2
    17    30    31    1
    18    31    32    2
    19    32    33    1
    20    33    34    2
    21    34    35    1
    22    24    25   ar
    23    25    26   ar
    24     4     5   am
    25     5     6    2
    26     5     7    1
    27     7     8    1
    28     8     9    1
    29     9    10    1
    30    10    36    1
    31    36    37    1
    32    37    38   ar
    33    38    39   ar
    34    39    40   ar
    35    40    41   ar
    36    41    42   ar
    37    42    43    1
    38    10    11    1
    39    11    12    1
    40    15    16   ar
    41    16    17   ar
    42    17    18   ar
    43    18    13   ar
    44     7     1    1
    45    42    37   ar
    46    26    21   ar
    47    12     7    1
    48    35    27    1
    49    34    30    1
@<TRIPOS>MOLECULE
*****
 43 49 0 0 0
SMALL
GASTEIGER

@<TRIPOS>ATOM
      1 N         142.1856  138.4984  158.6601 N.am    1  UNL1       -0.2222
      2 C         142.6615  138.6318  160.0764 C.2     1  UNL1        0.3219
      3 O         143.9754  138.1478  160.6143 O.2     1  UNL1       -0.2512
      4 N         141.5928  139.3343  160.8603 N.am    1  UNL1       -0.1907
      5 C         140.4564  139.6351  159.9285 C.2     1  UNL1        0.2529
      6 O         139.1781  140.3303  160.2925 O.2     1  UNL1       -0.2724
      7 C         140.8228  139.1185  158.5687 C.3     1  UNL1        0.1391
      8 C         141.3245  138.5541  157.2726 C.3     1  UNL1        0.0449
      9 C         140.4769  138.6421  156.0382 C.3     1  UNL1        0.0746
     10 N         139.1275  139.2944  156.0999 N.3     1  UNL1       -0.2676
     11 C         138.6258  139.8588  157.3959 C.3     1  UNL1        0.0746
     12 C         139.4734  139.7708  158.6303 C.3     1  UNL1        0.0449
     13 C         143.6173  135.7329  156.2001 C.ar    1  UNL1        0.2293
     14 C         142.8629  136.3738  157.3271 C.ar    1  UNL1        0.0924
     15 C         142.9400  137.8575  157.5331 C.ar    1  UNL1        0.1453
     16 N         143.7717  138.7004  156.6123 N.ar    1  UNL1       -0.2084
     17 C         144.5261  138.0596  155.4853 C.ar    1  UNL1        0.2027
     18 N         144.4490  136.5757  155.2793 N.ar    1  UNL1       -0.1892
     19 C         143.1632  133.3520  157.1355 C.3     1  UNL1        0.2542
     20 O         143.5402  134.2491  155.9940 O.3     1  UNL1       -0.4560
     21 C         141.6503  139.6761  162.3196 C.ar    1  UNL1        0.0622
     22 C         141.7363  138.5829  163.3431 C.ar    1  UNL1        0.0154
     23 C         141.7938  138.9246  164.8025 C.ar    1  UNL1        0.0010
     24 C         141.7654  140.3596  165.2385 C.ar    1  UNL1       -0.0035
     25 C         141.6795  141.4529  164.2150 C.ar    1  UNL1        0.0010
     26 C         141.6219  141.1110  162.7556 C.ar    1  UNL1        0.0154
     27 C         141.8230  140.7013  166.6979 C.2     1  UNL1       -0.0161
     28 C         142.8381  141.6858  167.1982 C.2     1  UNL1       -0.0038
     29 C         142.8957  142.0276  168.6576 C.2     1  UNL1        0.0025
     30 C         141.9381  141.3847  169.6167 C.2     1  UNL1        0.0366
     31 C         141.7576  141.5238  171.0993 C.2     1  UNL1        0.1233
     32 N         140.6309  140.6251  171.5154 N.2     1  UNL1       -0.1467
     33 N         140.1151  139.9307  170.2899 N.2     1  UNL1       -0.1520
     34 C         140.9230  140.4002  169.1164 C.2     1  UNL1        0.0864
     35 C         140.8654  140.0585  167.6571 C.3     1  UNL1        0.0739
     36 C         138.2799  139.3824  154.8654 C.3     1  UNL1        0.1183
     37 C         136.8951  139.9531  154.9456 C.ar    1  UNL1        0.0712
     38 N         135.7287  139.0541  155.2305 N.ar    1  UNL1       -0.2471
     39 C         134.3438  139.6249  155.3107 C.ar    1  UNL1        0.0985
     40 C         134.1254  141.0947  155.1059 C.ar    1  UNL1        0.0203
     41 C         135.2918  141.9937  154.8209 C.ar    1  UNL1       -0.0015
     42 C         136.6766  141.4230  154.7408 C.ar    1  UNL1       -0.0069
     43 C         137.8430  142.3220  154.4558 C.3     1  UNL1        0.0323
@<TRIPOS>BOND
     1    19    20    1
     2    20    13    1
     3    13    14   ar
     4    14    15   ar
     5    15     1    1
     6     1     2   am
     7     2     3    2
     8     2     4   am
     9     4    21    1
    10    21    22   ar
    11    22    23   ar
    12    23    24   ar
    13    24    27    1
    14    27    28    2
    15    28    29    1
    16    29    30    2
    17    30    31    1
    18    31    32    2
    19    32    33    1
    20    33    34    2
    21    34    35    1
    22    24    25   ar
    23    25    26   ar
    24     4     5   am
    25     5     6    2
    26     5     7    1
    27     7     8    1
    28     8     9    1
    29     9    10    1
    30    10    36    1
    31    36    37    1
    32    37    38   ar
    33    38    39   ar
    34    39    40   ar
    35    40    41   ar
    36    41    42   ar
    37    42    43    1
    38    10    11    1
    39    11    12    1
    40    15    16   ar
    41    16    17   ar
    42    17    18   ar
    43    18    13   ar
    44     7     1    1
    45    42    37   ar
    46    26    21   ar
    47    12     7    1
    48    35    27    1
    49    34    30    1
@<TRIPOS>MOLECULE
*****
 43 49 0 0 0
SMALL
GASTEIGER

@<TRIPOS>ATOM
      1 N         138.8389  140.6375  159.0730 N.am    1  UNL1       -0.2222
      2 C         138.7665  141.0467  160.5143 C.2     1  UNL1        0.3219
      3 O         137.8137  142.0461  161.1003 O.2     1  UNL1       -0.2512
      4 N         139.8142  140.2810  161.2668 N.am    1  UNL1       -0.1907
      5 C         140.5341  139.3987  160.2905 C.2     1  UNL1        0.2529
      6 O         141.6592  138.4606  160.6133 O.2     1  UNL1       -0.2724
      7 C         139.9314  139.6190  158.9346 C.3     1  UNL1        0.1391
      8 C         139.2323  139.9425  157.6475 C.3     1  UNL1        0.0449
      9 C         139.6489  139.2635  156.3766 C.3     1  UNL1        0.0746
     10 N         140.7645  138.2609  156.3927 N.3     1  UNL1       -0.2676
     11 C         141.4635  137.9374  157.6798 C.3     1  UNL1        0.0746
     12 C         141.0470  138.6164  158.9507 C.3     1  UNL1        0.0449
     13 C         137.4537  142.9606  156.1688 C.ar    1  UNL1        0.2293
     14 C         138.3214  142.4422  157.2772 C.ar    1  UNL1        0.0924
     15 C         137.9712  141.1559  157.9646 C.ar    1  UNL1        0.1453
     16 N         136.7534  140.3879  157.5437 N.ar    1  UNL1       -0.2084
     17 C         135.8858  140.9061  156.4355 C.ar    1  UNL1        0.2027
     18 N         136.2359  142.1926  155.7479 N.ar    1  UNL1       -0.1892
     19 C         139.0365  145.0009  155.8835 C.3     1  UNL1        0.2542
     20 O         137.8037  144.2470  155.4813 O.3     1  UNL1       -0.4560
     21 C         140.0930  140.3803  162.7372 C.ar    1  UNL1        0.0622
     22 C         139.2628  139.5994  163.7124 C.ar    1  UNL1        0.0154
     23 C         139.5416  139.6987  165.1829 C.ar    1  UNL1        0.0010
     24 C         140.6506  140.5789  165.6782 C.ar    1  UNL1       -0.0035
     25 C         141.4809  141.3598  164.7030 C.ar    1  UNL1        0.0010
     26 C         141.2020  141.2605  163.2325 C.ar    1  UNL1        0.0154
     27 C         140.9295  140.6782  167.1488 C.2     1  UNL1       -0.0161
     28 C         142.0739  139.9160  167.7483 C.2     1  UNL1       -0.0038
     29 C         142.3527  140.0153  169.2188 C.2     1  UNL1        0.0025
     30 C         141.4870  140.8768  170.0897 C.2     1  UNL1        0.0366
     31 C         141.5185  141.1688  171.5607 C.2     1  UNL1        0.1233
     32 N         140.3935  142.1115  171.8703 N.2     1  UNL1       -0.1467
     33 N         139.6668  142.4020  170.5907 N.2     1  UNL1       -0.1520
     34 C         140.3426  141.6390  169.4902 C.2     1  UNL1        0.0864
     35 C         140.0638  141.5397  168.0198 C.3     1  UNL1        0.0739
     36 C         141.1811  137.5819  155.1217 C.3     1  UNL1        0.1183
     37 C         141.7600  136.1989  155.1651 C.ar    1  UNL1        0.0712
     38 N         140.8564  135.0045  155.0809 N.ar    1  UNL1       -0.2471
     39 C         141.4355  133.6214  155.1244 C.ar    1  UNL1        0.0985
     40 C         142.9180  133.4327  155.2521 C.ar    1  UNL1        0.0203
     41 C         143.8216  134.6270  155.3364 C.ar    1  UNL1       -0.0015
     42 C         143.2427  136.0101  155.2929 C.ar    1  UNL1       -0.0069
     43 C         144.1463  137.2044  155.3771 C.3     1  UNL1        0.0323
@<TRIPOS>BOND
     1    19    20    1
     2    20    13    1
     3    13    14   ar
     4    14    15   ar
     5    15     1    1
     6     1     2   am
     7     2     3    2
     8     2     4   am
     9     4    21    1
    10    21    22   ar
    11    22    23   ar
    12    23    24   ar
    13    24    27    1
    14    27    28    2
    15    28    29    1
    16    29    30    2
    17    30    31    1
    18    31    32    2
    19    32    33    1
    20    33    34    2
    21    34    35    1
    22    24    25   ar
    23    25    26   ar
    24     4     5   am
    25     5     6    2
    26     5     7    1
    27     7     8    1
    28     8     9    1
    29     9    10    1
    30    10    36    1
    31    36    37    1
    32    37    38   ar
    33    38    39   ar
    34    39    40   ar
    35    40    41   ar
    36    41    42   ar
    37    42    43    1
    38    10    11    1
    39    11    12    1
    40    15    16   ar
    41    16    17   ar
    42    17    18   ar
    43    18    13   ar
    44     7     1    1
    45    42    37   ar
    46    26    21   ar
    47    12     7    1
    48    35    27    1
    49    34    30    1
@<TRIPOS>MOLECULE
*****
 43 49 0 0 0
SMALL
GASTEIGER

@<TRIPOS>ATOM
      1 N         140.1630  143.8792  158.8334 N.am    1  UNL1       -0.2222
      2 C         140.7695  144.0845  160.1899 C.2     1  UNL1        0.3219
      3 O         141.7957  145.1177  160.5497 O.2     1  UNL1       -0.2512
      4 N         140.1694  143.0753  161.1235 N.am    1  UNL1       -0.1907
      5 C         139.1922  142.2462  160.3439 C.2     1  UNL1        0.2529
      6 O         138.3643  141.1184  160.8847 O.2     1  UNL1       -0.2724
      7 C         139.1882  142.7431  158.9285 C.3     1  UNL1        0.1391
      8 C         139.2916  143.3452  157.5586 C.3     1  UNL1        0.0449
      9 C         138.4590  142.8014  156.4356 C.3     1  UNL1        0.0746
     10 N         137.5231  141.6555  156.6826 N.3     1  UNL1       -0.2676
     11 C         137.4197  141.0534  158.0525 C.3     1  UNL1        0.0746
     12 C         138.2523  141.5972  159.1755 C.3     1  UNL1        0.0449
     13 C         141.9404  145.0630  155.4883 C.ar    1  UNL1        0.2293
     14 C         141.6270  144.2712  156.7232 C.ar    1  UNL1        0.0924
     15 C         140.4764  144.6710  157.5985 C.ar    1  UNL1        0.1453
     16 N         139.6391  145.8625  157.2390 N.ar    1  UNL1       -0.2084
     17 C         139.9524  146.6543  156.0042 C.ar    1  UNL1        0.2027
     18 N         141.1031  146.2545  155.1288 N.ar    1  UNL1       -0.1892
     19 C         143.7834  143.3517  154.8369 C.3     1  UNL1        0.2542
     20 O         143.0909  144.6633  154.6129 O.3     1  UNL1       -0.4560
     21 C         140.4903  142.9220  162.5806 C.ar    1  UNL1        0.0622
     22 C         139.6907  143.6682  163.6072 C.ar    1  UNL1        0.0154
     23 C         140.0116  143.5149  165.0645 C.ar    1  UNL1        0.0010
     24 C         141.1321  142.6154  165.4952 C.ar    1  UNL1       -0.0035
     25 C         141.9317  141.8692  164.4686 C.ar    1  UNL1        0.0010
     26 C         141.6108  142.0225  163.0113 C.ar    1  UNL1        0.0154
     27 C         141.4530  142.4621  166.9524 C.2     1  UNL1       -0.0161
     28 C         142.8757  142.2828  167.3923 C.2     1  UNL1       -0.0038
     29 C         143.1966  142.1296  168.8495 C.2     1  UNL1        0.0025
     30 C         142.0946  142.1556  169.8668 C.2     1  UNL1        0.0366
     31 C         142.1055  142.0303  171.3616 C.2     1  UNL1        0.1233
     32 N         140.6893  142.1322  171.8455 N.2     1  UNL1       -0.1467
     33 N         139.8033  142.3204  170.6499 N.2     1  UNL1       -0.1520
     34 C         140.6718  142.3349  169.4270 C.2     1  UNL1        0.0864
     35 C         140.3510  142.4882  167.9698 C.3     1  UNL1        0.0739
     36 C         136.6905  141.1117  155.5596 C.3     1  UNL1        0.1183
     37 C         137.0896  139.8355  154.8799 C.ar    1  UNL1        0.0712
     38 N         138.0940  138.9256  155.5228 N.ar    1  UNL1       -0.2471
     39 C         138.4931  137.6494  154.8430 C.ar    1  UNL1        0.0985
     40 C         137.8878  137.2831  153.5204 C.ar    1  UNL1        0.0203
     41 C         136.8834  138.1930  152.8774 C.ar    1  UNL1       -0.0015
     42 C         136.4843  139.4691  153.5571 C.ar    1  UNL1       -0.0069
     43 C         135.4800  140.3790  152.9142 C.3     1  UNL1        0.0323
@<TRIPOS>BOND
     1    19    20    1
     2    20    13    1
     3    13    14   ar
     4    14    15   ar
     5    15     1    1
     6     1     2   am
     7     2     3    2
     8     2     4   am
     9     4    21    1
    10    21    22   ar
    11    22    23   ar
    12    23    24   ar
    13    24    27    1
    14    27    28    2
    15    28    29    1
    16    29    30    2
    17    30    31    1
    18    31    32    2
    19    32    33    1
    20    33    34    2
    21    34    35    1
    22    24    25   ar
    23    25    26   ar
    24     4     5   am
    25     5     6    2
    26     5     7    1
    27     7     8    1
    28     8     9    1
    29     9    10    1
    30    10    36    1
    31    36    37    1
    32    37    38   ar
    33    38    39   ar
    34    39    40   ar
    35    40    41   ar
    36    41    42   ar
    37    42    43    1
    38    10    11    1
    39    11    12    1
    40    15    16   ar
    41    16    17   ar
    42    17    18   ar
    43    18    13   ar
    44     7     1    1
    45    42    37   ar
    46    26    21   ar
    47    12     7    1
    48    35    27    1
    49    34    30    1
@<TRIPOS>MOLECULE
*****
 43 49 0 0 0
SMALL
GASTEIGER

@<TRIPOS>ATOM
      1 N         142.5756  138.7531  158.4431 N.am    1  UNL1       -0.2222
      2 C         142.1078  138.8496  159.8651 C.2     1  UNL1        0.3219
      3 O         141.1662  137.9036  160.5496 O.2     1  UNL1       -0.2512
      4 N         142.7471  140.0581  160.4824 N.am    1  UNL1       -0.1907
      5 C         143.6098  140.7085  159.4419 C.2     1  UNL1        0.2529
      6 O         144.4339  141.9478  159.6288 O.2     1  UNL1       -0.2724
      7 C         143.5039  139.9020  158.1815 C.3     1  UNL1        0.1391
      8 C         143.3000  139.0010  156.9997 C.3     1  UNL1        0.0449
      9 C         143.9995  139.2923  155.7052 C.3     1  UNL1        0.0746
     10 N         144.9028  140.4845  155.5925 N.3     1  UNL1       -0.2676
     11 C         145.1066  141.3854  156.7743 C.3     1  UNL1        0.0746
     12 C         144.4072  141.0942  158.0688 C.3     1  UNL1        0.0449
     13 C         142.5911  135.3688  156.3704 C.ar    1  UNL1        0.2293
     14 C         142.9828  136.4282  157.3575 C.ar    1  UNL1        0.0924
     15 C         142.1838  137.6938  157.4560 C.ar    1  UNL1        0.1453
     16 N         140.9930  137.9001  156.5675 N.ar    1  UNL1       -0.2084
     17 C         140.6012  136.8408  155.5805 C.ar    1  UNL1        0.2027
     18 N         141.4003  135.5751  155.4819 N.ar    1  UNL1       -0.1892
     19 C         143.8942  133.4356  157.5169 C.3     1  UNL1        0.2542
     20 O         143.3900  134.1032  156.2718 O.3     1  UNL1       -0.4560
     21 C         142.5569  140.5328  161.8924 C.ar    1  UNL1        0.0622
     22 C         143.6728  140.3989  162.8858 C.ar    1  UNL1        0.0154
     23 C         143.4826  140.8736  164.2959 C.ar    1  UNL1        0.0010
     24 C         142.1766  141.4822  164.7127 C.ar    1  UNL1       -0.0035
     25 C         141.0606  141.6162  163.7193 C.ar    1  UNL1        0.0010
     26 C         141.2508  141.1414  162.3092 C.ar    1  UNL1        0.0154
     27 C         141.9864  141.9570  166.1229 C.2     1  UNL1       -0.0161
     28 C         140.6150  142.3113  166.6164 C.2     1  UNL1       -0.0038
     29 C         140.4248  142.7860  168.0266 C.2     1  UNL1        0.0025
     30 C         141.6061  142.9064  168.9431 C.2     1  UNL1        0.0366
     31 C         141.7265  143.3426  170.3732 C.2     1  UNL1        0.1233
     32 N         143.1724  143.2579  170.7635 N.2     1  UNL1       -0.1467
     33 N         143.9456  142.7693  169.5747 N.2     1  UNL1       -0.1520
     34 C         142.9776  142.5520  168.4495 C.2     1  UNL1        0.0864
     35 C         143.1677  142.0773  167.0395 C.3     1  UNL1        0.0739
     36 C         145.6023  140.7757  154.2978 C.3     1  UNL1        0.1183
     37 C         145.9325  142.1907  153.9256 C.ar    1  UNL1        0.0712
     38 N         144.8707  143.0834  153.3548 N.ar    1  UNL1       -0.2471
     39 C         145.2010  144.4985  152.9825 C.ar    1  UNL1        0.0985
     40 C         146.5930  145.0209  153.1810 C.ar    1  UNL1        0.0203
     41 C         147.6548  144.1282  153.7518 C.ar    1  UNL1       -0.0015
     42 C         147.3246  142.7132  154.1241 C.ar    1  UNL1       -0.0069
     43 C         148.3863  141.8205  154.6948 C.3     1  UNL1        0.0323
@<TRIPOS>BOND
     1    19    20    1
     2    20    13    1
     3    13    14   ar
     4    14    15   ar
     5    15     1    1
     6     1     2   am
     7     2     3    2
     8     2     4   am
     9     4    21    1
    10    21    22   ar
    11    22    23   ar
    12    23    24   ar
    13    24    27    1
    14    27    28    2
    15    28    29    1
    16    29    30    2
    17    30    31    1
    18    31    32    2
    19    32    33    1
    20    33    34    2
    21    34    35    1
    22    24    25   ar
    23    25    26   ar
    24     4     5   am
    25     5     6    2
    26     5     7    1
    27     7     8    1
    28     8     9    1
    29     9    10    1
    30    10    36    1
    31    36    37    1
    32    37    38   ar
    33    38    39   ar
    34    39    40   ar
    35    40    41   ar
    36    41    42   ar
    37    42    43    1
    38    10    11    1
    39    11    12    1
    40    15    16   ar
    41    16    17   ar
    42    17    18   ar
    43    18    13   ar
    44     7     1    1
    45    42    37   ar
    46    26    21   ar
    47    12     7    1
    48    35    27    1
    49    34    30    1
