@<TRIPOS>MOLECULE
*****
 51 58 0 0 0
SMALL
GASTEIGER

@<TRIPOS>ATOM
      1 C         139.1204  142.8765  156.7945 C.ar    1  UNL1        0.0192
      2 C         137.7894  142.2159  156.5896 C.ar    1  UNL1        0.0013
      3 C         137.2861  141.2169  157.5890 C.ar    1  UNL1       -0.0029
      4 C         138.1140  140.8786  158.7933 C.ar    1  UNL1       -0.0061
      5 C         139.4450  141.5393  158.9982 C.ar    1  UNL1       -0.0029
      6 C         139.9482  142.5382  157.9987 C.ar    1  UNL1        0.0013
      7 C         139.7803  148.7441  153.9863 C.ar    1  UNL1        0.1335
      8 C         140.7084  148.3077  152.8918 C.ar    1  UNL1        0.0360
      9 C         141.1333  146.8723  152.7967 C.ar    1  UNL1        0.0251
     10 C         140.6301  145.8733  153.7961 C.ar    1  UNL1        0.1171
     11 N         141.0550  144.4379  153.7010 N.ar    1  UNL1       -0.2407
     12 C         140.5518  143.4390  154.7004 C.ar    1  UNL1        0.0989
     13 C         139.6236  143.8755  155.7950 C.ar    1  UNL1        0.1005
     14 N         139.1987  145.3108  155.8901 N.ar    1  UNL1       -0.2237
     15 C         139.7019  146.3098  154.8907 C.ar    1  UNL1        0.1814
     16 N         139.2771  147.7452  154.9858 N.ar    1  UNL1       -0.2104
     17 C         138.0806  154.4858  154.3668 C.3     1  UNL1        0.0897
     18 N         138.5055  153.0504  154.2717 N.3     1  UNL1       -0.2686
     19 C         138.4435  152.1680  155.4831 C.3     1  UNL1        0.0939
     20 C         138.8684  150.7326  155.3880 C.3     1  UNL1        0.1095
     21 N         139.3553  150.1796  154.0815 N.pl3   1  UNL1       -0.2903
     22 C         139.4173  151.0619  152.8700 C.3     1  UNL1        0.1095
     23 C         138.9924  152.4973  152.9651 C.3     1  UNL1        0.0939
     24 C         140.9767  142.0036  154.6053 C.ar    1  UNL1        0.0191
     25 C         142.2423  141.5503  155.2709 C.ar    1  UNL1        0.0015
     26 C         142.6672  140.1149  155.1758 C.ar    1  UNL1        0.0000
     27 C         141.8265  139.1327  154.4151 C.ar    1  UNL1        0.0000
     28 C         140.5610  139.5859  153.7496 C.ar    1  UNL1        0.0000
     29 C         140.1361  141.0214  153.8447 C.ar    1  UNL1        0.0015
     30 C         137.6108  139.8797  159.7928 C.3     1  UNL1        0.0991
     31 N         138.0078  139.9961  161.2347 N.3     1  UNL1       -0.2689
     32 C         138.7669  138.8841  161.8957 C.3     1  UNL1        0.0728
     33 C         139.1639  139.0005  163.3375 C.3     1  UNL1        0.0249
     34 C         138.8017  140.2290  164.1183 C.3     1  UNL1        0.0613
     35 C         138.0425  141.3411  163.4572 C.3     1  UNL1        0.0249
     36 C         137.6455  141.2246  162.0154 C.3     1  UNL1        0.0728
     37 C         139.1987  140.3455  165.5601 C.ar    1  UNL1        0.1396
     38 N         138.6886  139.4962  166.6864 N.ar    1  UNL1       -0.1336
     39 N         139.3501  139.9575  167.9512 N.ar    1  UNL1       -0.1293
     40 C         140.2690  141.0919  167.6065 C.ar    1  UNL1        0.1644
     41 N         140.1754  141.3316  166.1288 N.ar    1  UNL1       -0.3245
     42 H         140.6685  142.0161  165.6212 H       1  UNL1        0.1686
     43 C         141.1303  141.8529  168.5704 C.ar    1  UNL1        0.0550
     44 C         142.5770  141.4905  168.7309 C.ar    1  UNL1        0.0075
     45 C         143.4383  142.2515  169.6948 C.ar    1  UNL1        0.0340
     46 C         142.8530  143.3749  170.4982 C.ar    1  UNL1        0.1254
     47 N         143.7142  144.1358  171.4620 N.pl3   1  UNL1       -0.3426
     48 N         141.4062  143.7372  170.3376 N.ar    1  UNL1       -0.2295
     49 C         140.5450  142.9762  169.3738 C.ar    1  UNL1        0.1033
     50 H         144.6637  143.8980  171.5673 H       1  UNL1        0.1437
     51 H         143.3300  144.8731  171.9892 H       1  UNL1        0.1437
@<TRIPOS>BOND
     1    17    18    1
     2    18    19    1
     3    19    20    1
     4    20    21    1
     5    21     7    1
     6     7     8   ar
     7     8     9   ar
     8     9    10   ar
     9    10    11   ar
    10    11    12   ar
    11    12    24    1
    12    24    25   ar
    13    25    26   ar
    14    26    27   ar
    15    27    28   ar
    16    28    29   ar
    17    12    13   ar
    18    13     1    1
    19     1     2   ar
    20     2     3   ar
    21     3     4   ar
    22     4    30    1
    23    30    31    1
    24    31    32    1
    25    32    33    1
    26    33    34    1
    27    34    37    1
    28    37    38   ar
    29    38    39   ar
    30    39    40   ar
    31    40    43    1
    32    43    44   ar
    33    44    45   ar
    34    45    46   ar
    35    46    47    1
    36    46    48   ar
    37    48    49   ar
    38    40    41   ar
    39    34    35    1
    40    35    36    1
    41     4     5   ar
    42     5     6   ar
    43    13    14   ar
    44    14    15   ar
    45    15    16   ar
    46    21    22    1
    47    22    23    1
    48    23    18    1
    49    16     7   ar
    50    15    10   ar
    51    29    24   ar
    52     6     1   ar
    53    36    31    1
    54    41    37   ar
    55    49    43   ar
    56    47    50    1
    57    47    51    1
    58    41    42    1
@<TRIPOS>MOLECULE
*****
 51 58 0 0 0
SMALL
GASTEIGER

@<TRIPOS>ATOM
      1 C         139.8759  139.3682  156.9519 C.ar    1  UNL1        0.0192
      2 C         140.3226  140.2311  158.0946 C.ar    1  UNL1        0.0013
      3 C         141.3477  139.7210  159.0636 C.ar    1  UNL1       -0.0029
      4 C         141.9261  138.3479  158.8898 C.ar    1  UNL1       -0.0061
      5 C         141.4794  137.4850  157.7471 C.ar    1  UNL1       -0.0029
      6 C         140.4543  137.9951  156.7782 C.ar    1  UNL1        0.0013
      7 C         133.9035  140.9619  154.8212 C.ar    1  UNL1        0.1335
      8 C         134.3269  141.4403  153.4641 C.ar    1  UNL1        0.0360
      9 C         135.7754  141.4086  153.0759 C.ar    1  UNL1        0.0251
     10 C         136.8005  140.8985  154.0449 C.ar    1  UNL1        0.1171
     11 N         138.2491  140.8668  153.6567 N.ar    1  UNL1       -0.2407
     12 C         139.2743  140.3567  154.6257 C.ar    1  UNL1        0.0989
     13 C         138.8508  139.8783  155.9829 C.ar    1  UNL1        0.1005
     14 N         137.4022  139.9100  156.3710 N.ar    1  UNL1       -0.2237
     15 C         136.3771  140.4201  155.4020 C.ar    1  UNL1        0.1814
     16 N         134.9286  140.4518  155.7902 N.ar    1  UNL1       -0.2104
     17 C         128.1092  141.0887  156.3738 C.3     1  UNL1        0.0897
     18 N         129.5577  141.0570  155.9857 N.3     1  UNL1       -0.2686
     19 C         130.5095  140.1542  156.7130 C.3     1  UNL1        0.0939
     20 C         131.9581  140.1225  156.3249 C.3     1  UNL1        0.1095
     21 N         132.4549  140.9936  155.2094 N.pl3   1  UNL1       -0.2903
     22 C         131.5031  141.8964  154.4820 C.3     1  UNL1        0.1095
     23 C         130.0546  141.9281  154.8701 C.3     1  UNL1        0.0939
     24 C         140.7228  140.3250  154.2376 C.ar    1  UNL1        0.0191
     25 C         141.2470  139.2062  153.3869 C.ar    1  UNL1        0.0015
     26 C         142.6956  139.1745  152.9988 C.ar    1  UNL1        0.0000
     27 C         143.6199  140.2615  153.4613 C.ar    1  UNL1        0.0000
     28 C         143.0958  141.3803  154.3119 C.ar    1  UNL1        0.0000
     29 C         141.6472  141.4120  154.7001 C.ar    1  UNL1        0.0015
     30 C         142.9512  137.8378  159.8588 C.3     1  UNL1        0.0991
     31 N         142.8419  138.1794  161.3154 N.3     1  UNL1       -0.2689
     32 C         141.6433  137.7375  162.1014 C.3     1  UNL1        0.0728
     33 C         141.5339  138.0791  163.5580 C.3     1  UNL1        0.0249
     34 C         142.6232  138.8627  164.2283 C.3     1  UNL1        0.0613
     35 C         143.8219  139.3047  163.4422 C.3     1  UNL1        0.0249
     36 C         143.9312  138.9631  161.9857 C.3     1  UNL1        0.0728
     37 C         142.5139  139.2043  165.6848 C.ar    1  UNL1        0.1396
     38 N         143.3371  138.6165  166.7925 N.ar    1  UNL1       -0.1336
     39 N         142.8942  139.2426  168.0816 N.ar    1  UNL1       -0.1293
     40 C         141.7972  140.2174  167.7706 C.ar    1  UNL1        0.1644
     41 N         141.5623  140.1937  166.2893 N.ar    1  UNL1       -0.3245
     42 H         140.8997  140.7328  165.7998 H       1  UNL1        0.1686
     43 C         141.0641  141.0668  168.7661 C.ar    1  UNL1        0.0550
     44 C         141.3207  142.5434  168.8253 C.ar    1  UNL1        0.0075
     45 C         140.5875  143.3928  169.8209 C.ar    1  UNL1        0.0340
     46 C         139.5977  142.7654  170.7572 C.ar    1  UNL1        0.1254
     47 N         138.8645  143.6147  171.7527 N.pl3   1  UNL1       -0.3426
     48 N         139.3411  141.2886  170.6979 N.ar    1  UNL1       -0.2295
     49 C         140.0742  140.4394  169.7024 C.ar    1  UNL1        0.1033
     50 H         139.0330  144.5839  171.7915 H       1  UNL1        0.1437
     51 H         138.2149  143.2030  172.3672 H       1  UNL1        0.1437
@<TRIPOS>BOND
     1    17    18    1
     2    18    19    1
     3    19    20    1
     4    20    21    1
     5    21     7    1
     6     7     8   ar
     7     8     9   ar
     8     9    10   ar
     9    10    11   ar
    10    11    12   ar
    11    12    24    1
    12    24    25   ar
    13    25    26   ar
    14    26    27   ar
    15    27    28   ar
    16    28    29   ar
    17    12    13   ar
    18    13     1    1
    19     1     2   ar
    20     2     3   ar
    21     3     4   ar
    22     4    30    1
    23    30    31    1
    24    31    32    1
    25    32    33    1
    26    33    34    1
    27    34    37    1
    28    37    38   ar
    29    38    39   ar
    30    39    40   ar
    31    40    43    1
    32    43    44   ar
    33    44    45   ar
    34    45    46   ar
    35    46    47    1
    36    46    48   ar
    37    48    49   ar
    38    40    41   ar
    39    34    35    1
    40    35    36    1
    41     4     5   ar
    42     5     6   ar
    43    13    14   ar
    44    14    15   ar
    45    15    16   ar
    46    21    22    1
    47    22    23    1
    48    23    18    1
    49    16     7   ar
    50    15    10   ar
    51    29    24   ar
    52     6     1   ar
    53    36    31    1
    54    41    37   ar
    55    49    43   ar
    56    47    50    1
    57    47    51    1
    58    41    42    1
@<TRIPOS>MOLECULE
*****
 51 58 0 0 0
SMALL
GASTEIGER

@<TRIPOS>ATOM
      1 C         140.7903  140.8333  158.5205 C.ar    1  UNL1        0.0192
      2 C         139.7689  139.7843  158.1945 C.ar    1  UNL1        0.0013
      3 C         140.0200  138.8143  157.0782 C.ar    1  UNL1       -0.0029
      4 C         141.2926  138.8932  156.2881 C.ar    1  UNL1       -0.0061
      5 C         142.3140  139.9422  156.6141 C.ar    1  UNL1       -0.0029
      6 C         142.0629  140.9122  157.7303 C.ar    1  UNL1        0.0013
      7 C         140.9507  143.0968  164.6524 C.ar    1  UNL1        0.1335
      8 C         140.2427  144.3902  164.3770 C.ar    1  UNL1        0.0360
      9 C         139.7858  144.7135  162.9854 C.ar    1  UNL1        0.0251
     10 C         140.0370  143.7434  161.8692 C.ar    1  UNL1        0.1171
     11 N         139.5801  144.0668  160.4775 N.ar    1  UNL1       -0.2407
     12 C         139.8312  143.0968  159.3612 C.ar    1  UNL1        0.0989
     13 C         140.5392  141.8034  159.6367 C.ar    1  UNL1        0.1005
     14 N         140.9961  141.4800  161.0284 N.ar    1  UNL1       -0.2237
     15 C         140.7449  142.4501  162.1446 C.ar    1  UNL1        0.1814
     16 N         141.2018  142.1267  163.5362 N.ar    1  UNL1       -0.2104
     17 C         142.7781  141.8033  170.2191 C.3     1  UNL1        0.0897
     18 N         142.3213  142.1266  168.8275 N.3     1  UNL1       -0.2686
     19 C         143.2745  141.9985  167.6764 C.3     1  UNL1        0.0939
     20 C         142.8176  142.3219  166.2847 C.3     1  UNL1        0.1095
     21 N         141.4076  142.7734  166.0441 N.pl3   1  UNL1       -0.2903
     22 C         140.4543  142.9015  167.1952 C.3     1  UNL1        0.1095
     23 C         140.9112  142.5781  168.5868 C.3     1  UNL1        0.0939
     24 C         139.3743  143.4201  157.9696 C.ar    1  UNL1        0.0191
     25 C         140.1711  144.3645  157.1190 C.ar    1  UNL1        0.0015
     26 C         139.7143  144.6878  155.7274 C.ar    1  UNL1        0.0000
     27 C         138.4606  144.0668  155.1863 C.ar    1  UNL1        0.0000
     28 C         137.6639  143.1226  156.0368 C.ar    1  UNL1        0.0000
     29 C         138.1207  142.7992  157.4285 C.ar    1  UNL1        0.0015
     30 C         141.5437  137.9232  155.1718 C.3     1  UNL1        0.0991
     31 N         141.8246  136.4821  155.4795 N.3     1  UNL1       -0.2689
     32 C         142.7550  136.1219  156.5995 C.3     1  UNL1        0.0728
     33 C         143.0358  134.6808  156.9071 C.3     1  UNL1        0.0249
     34 C         142.3862  133.6001  156.0947 C.3     1  UNL1        0.0613
     35 C         141.4557  133.9604  154.9747 C.3     1  UNL1        0.0249
     36 C         141.1749  135.4014  154.6671 C.3     1  UNL1        0.0728
     37 C         142.6669  132.1591  156.4023 C.ar    1  UNL1        0.1396
     38 N         142.4279  130.9984  155.4827 N.ar    1  UNL1       -0.1336
     39 N         142.8493  129.7477  156.1956 N.ar    1  UNL1       -0.1293
     40 C         143.3488  130.1355  157.5558 C.ar    1  UNL1        0.1644
     41 N         143.2361  131.6258  157.6836 N.ar    1  UNL1       -0.3245
     42 H         143.4909  132.1600  158.4702 H       1  UNL1        0.1686
     43 C         143.8695  129.1976  158.6042 C.ar    1  UNL1        0.0550
     44 C         145.3479  129.0483  158.8094 C.ar    1  UNL1        0.0075
     45 C         145.8687  128.1103  159.8578 C.ar    1  UNL1        0.0340
     46 C         144.9111  127.3217  160.7010 C.ar    1  UNL1        0.1254
     47 N         145.4318  126.3838  161.7494 N.pl3   1  UNL1       -0.3426
     48 N         143.4326  127.4710  160.4958 N.ar    1  UNL1       -0.2295
     49 C         142.9119  128.4089  159.4475 C.ar    1  UNL1        0.1033
     50 H         146.4021  126.2859  161.8840 H       1  UNL1        0.1437
     51 H         144.8033  125.8662  162.3028 H       1  UNL1        0.1437
@<TRIPOS>BOND
     1    17    18    1
     2    18    19    1
     3    19    20    1
     4    20    21    1
     5    21     7    1
     6     7     8   ar
     7     8     9   ar
     8     9    10   ar
     9    10    11   ar
    10    11    12   ar
    11    12    24    1
    12    24    25   ar
    13    25    26   ar
    14    26    27   ar
    15    27    28   ar
    16    28    29   ar
    17    12    13   ar
    18    13     1    1
    19     1     2   ar
    20     2     3   ar
    21     3     4   ar
    22     4    30    1
    23    30    31    1
    24    31    32    1
    25    32    33    1
    26    33    34    1
    27    34    37    1
    28    37    38   ar
    29    38    39   ar
    30    39    40   ar
    31    40    43    1
    32    43    44   ar
    33    44    45   ar
    34    45    46   ar
    35    46    47    1
    36    46    48   ar
    37    48    49   ar
    38    40    41   ar
    39    34    35    1
    40    35    36    1
    41     4     5   ar
    42     5     6   ar
    43    13    14   ar
    44    14    15   ar
    45    15    16   ar
    46    21    22    1
    47    22    23    1
    48    23    18    1
    49    16     7   ar
    50    15    10   ar
    51    29    24   ar
    52     6     1   ar
    53    36    31    1
    54    41    37   ar
    55    49    43   ar
    56    47    50    1
    57    47    51    1
    58    41    42    1
@<TRIPOS>MOLECULE
*****
 51 58 0 0 0
SMALL
GASTEIGER

@<TRIPOS>ATOM
      1 C         141.9541  137.3415  156.4266 C.ar    1  UNL1        0.0192
      2 C         143.2144  138.1459  156.3055 C.ar    1  UNL1        0.0013
      3 C         143.2600  139.5515  156.8272 C.ar    1  UNL1       -0.0029
      4 C         142.0453  140.1526  157.4701 C.ar    1  UNL1       -0.0061
      5 C         140.7851  139.3482  157.5912 C.ar    1  UNL1       -0.0029
      6 C         140.7395  137.9426  157.0694 C.ar    1  UNL1        0.0013
      7 C         142.9343  130.8775  156.5050 C.ar    1  UNL1        0.1335
      8 C         142.3302  130.5955  155.1614 C.ar    1  UNL1        0.0360
      9 C         141.7717  131.7191  154.3395 C.ar    1  UNL1        0.0251
     10 C         141.8173  133.1247  154.8613 C.ar    1  UNL1        0.1171
     11 N         141.2587  134.2483  154.0393 N.ar    1  UNL1       -0.2407
     12 C         141.3043  135.6539  154.5611 C.ar    1  UNL1        0.0989
     13 C         141.9085  135.9359  155.9048 C.ar    1  UNL1        0.1005
     14 N         142.4670  134.8123  156.7267 N.ar    1  UNL1       -0.2237
     15 C         142.4214  133.4067  156.2049 C.ar    1  UNL1        0.1814
     16 N         142.9799  132.2831  157.0268 N.ar    1  UNL1       -0.2104
     17 C         145.1685  126.3832  159.7929 C.3     1  UNL1        0.0897
     18 N         144.6099  127.5067  158.9710 N.3     1  UNL1       -0.2686
     19 C         143.5179  127.2388  157.9781 C.3     1  UNL1        0.0939
     20 C         142.9594  128.3624  157.1561 C.3     1  UNL1        0.1095
     21 N         143.4928  129.7539  157.3270 N.pl3   1  UNL1       -0.2903
     22 C         144.5848  130.0218  158.3199 C.3     1  UNL1        0.1095
     23 C         145.1434  128.8983  159.1418 C.3     1  UNL1        0.0939
     24 C         140.7458  136.7775  153.7392 C.ar    1  UNL1        0.0191
     25 C         139.2746  137.0687  153.7682 C.ar    1  UNL1        0.0015
     26 C         138.7161  138.1923  152.9463 C.ar    1  UNL1        0.0000
     27 C         139.6288  139.0248  152.0953 C.ar    1  UNL1        0.0000
     28 C         141.0999  138.7336  152.0663 C.ar    1  UNL1        0.0000
     29 C         141.6585  137.6099  152.8882 C.ar    1  UNL1        0.0015
     30 C         142.0909  141.5582  157.9919 C.3     1  UNL1        0.0991
     31 N         141.7110  141.8427  159.4149 N.3     1  UNL1       -0.2689
     32 C         140.8142  143.0019  159.7343 C.3     1  UNL1        0.0728
     33 C         140.4343  143.2864  161.1573 C.3     1  UNL1        0.0249
     34 C         140.9511  142.4116  162.2608 C.3     1  UNL1        0.0613
     35 C         141.8479  141.2523  161.9413 C.3     1  UNL1        0.0249
     36 C         142.2278  140.9679  160.5183 C.3     1  UNL1        0.0728
     37 C         140.5712  142.6960  163.6837 C.ar    1  UNL1        0.1396
     38 N         139.9021  143.9412  164.1856 N.ar    1  UNL1       -0.1336
     39 N         139.7111  143.7999  165.6667 N.ar    1  UNL1       -0.1293
     40 C         140.2622  142.4674  166.0801 C.ar    1  UNL1        0.1644
     41 N         140.7937  141.7852  164.8545 N.ar    1  UNL1       -0.3245
     42 H         141.2148  140.8958  164.8240 H       1  UNL1        0.1686
     43 C         140.2787  141.9143  167.4743 C.ar    1  UNL1        0.0550
     44 C         140.5839  142.8145  168.6347 C.ar    1  UNL1        0.0075
     45 C         140.6004  142.2614  170.0289 C.ar    1  UNL1        0.0340
     46 C         140.3118  140.8081  170.2627 C.ar    1  UNL1        0.1254
     47 N         140.3284  140.2550  171.6569 N.pl3   1  UNL1       -0.3426
     48 N         140.0067  139.9079  169.1022 N.ar    1  UNL1       -0.2295
     49 C         139.9901  140.4610  167.7081 C.ar    1  UNL1        0.1033
     50 H         140.5287  140.8459  172.4185 H       1  UNL1        0.1437
     51 H         140.1390  139.3012  171.8103 H       1  UNL1        0.1437
@<TRIPOS>BOND
     1    17    18    1
     2    18    19    1
     3    19    20    1
     4    20    21    1
     5    21     7    1
     6     7     8   ar
     7     8     9   ar
     8     9    10   ar
     9    10    11   ar
    10    11    12   ar
    11    12    24    1
    12    24    25   ar
    13    25    26   ar
    14    26    27   ar
    15    27    28   ar
    16    28    29   ar
    17    12    13   ar
    18    13     1    1
    19     1     2   ar
    20     2     3   ar
    21     3     4   ar
    22     4    30    1
    23    30    31    1
    24    31    32    1
    25    32    33    1
    26    33    34    1
    27    34    37    1
    28    37    38   ar
    29    38    39   ar
    30    39    40   ar
    31    40    43    1
    32    43    44   ar
    33    44    45   ar
    34    45    46   ar
    35    46    47    1
    36    46    48   ar
    37    48    49   ar
    38    40    41   ar
    39    34    35    1
    40    35    36    1
    41     4     5   ar
    42     5     6   ar
    43    13    14   ar
    44    14    15   ar
    45    15    16   ar
    46    21    22    1
    47    22    23    1
    48    23    18    1
    49    16     7   ar
    50    15    10   ar
    51    29    24   ar
    52     6     1   ar
    53    36    31    1
    54    41    37   ar
    55    49    43   ar
    56    47    50    1
    57    47    51    1
    58    41    42    1
@<TRIPOS>MOLECULE
*****
 51 58 0 0 0
SMALL
GASTEIGER

@<TRIPOS>ATOM
      1 C         143.4117  139.0103  156.6819 C.ar    1  UNL1        0.0192
      2 C         144.5639  139.9061  156.3358 C.ar    1  UNL1        0.0013
      3 C         144.8475  141.1197  157.1705 C.ar    1  UNL1       -0.0029
      4 C         143.9788  141.4374  158.3515 C.ar    1  UNL1       -0.0061
      5 C         142.8267  140.5415  158.6976 C.ar    1  UNL1       -0.0029
      6 C         142.5431  139.3280  157.8628 C.ar    1  UNL1        0.0013
      7 C         143.4103  132.6571  155.1370 C.ar    1  UNL1        0.1335
      8 C         142.7020  132.7998  153.8225 C.ar    1  UNL1        0.0360
      9 C         142.2773  134.1560  153.3428 C.ar    1  UNL1        0.0251
     10 C         142.5609  135.3696  154.1776 C.ar    1  UNL1        0.1171
     11 N         142.1361  136.7259  153.6978 N.ar    1  UNL1       -0.2407
     12 C         142.4197  137.9395  154.5326 C.ar    1  UNL1        0.0989
     13 C         143.1281  137.7967  155.8472 C.ar    1  UNL1        0.1005
     14 N         143.5528  136.4405  156.3269 N.ar    1  UNL1       -0.2237
     15 C         143.2692  135.2269  155.4921 C.ar    1  UNL1        0.1814
     16 N         143.6939  133.8706  155.9718 N.ar    1  UNL1       -0.2104
     17 C         145.1092  127.2320  157.0561 C.3     1  UNL1        0.0897
     18 N         144.6845  128.5883  156.5763 N.3     1  UNL1       -0.2686
     19 C         144.9671  129.0066  155.1639 C.3     1  UNL1        0.0939
     20 C         144.5423  130.3629  154.6841 C.3     1  UNL1        0.1095
     21 N         143.8350  131.3008  155.6168 N.pl3   1  UNL1       -0.2903
     22 C         143.5524  130.8825  157.0293 C.3     1  UNL1        0.1095
     23 C         143.9771  129.5262  157.5091 C.3     1  UNL1        0.0939
     24 C         141.9950  139.2957  154.0529 C.ar    1  UNL1        0.0191
     25 C         140.6957  139.8831  154.5187 C.ar    1  UNL1        0.0015
     26 C         140.2710  141.2394  154.0390 C.ar    1  UNL1        0.0000
     27 C         141.1455  142.0083  153.0935 C.ar    1  UNL1        0.0000
     28 C         142.4448  141.4210  152.6277 C.ar    1  UNL1        0.0000
     29 C         142.8695  140.0646  153.1074 C.ar    1  UNL1        0.0015
     30 C         144.2624  142.6509  159.1863 C.3     1  UNL1        0.0991
     31 N         144.0627  142.6025  160.6722 N.3     1  UNL1       -0.2689
     32 C         142.8754  143.2779  161.2917 C.3     1  UNL1        0.0728
     33 C         142.6757  143.2295  162.7777 C.3     1  UNL1        0.0249
     34 C         143.6634  142.5056  163.6439 C.3     1  UNL1        0.0613
     35 C         144.8508  141.8302  163.0243 C.3     1  UNL1        0.0249
     36 C         145.0505  141.8787  161.5384 C.3     1  UNL1        0.0728
     37 C         143.4638  142.4572  165.1298 C.ar    1  UNL1        0.1396
     38 N         144.1832  143.2962  166.1439 N.ar    1  UNL1       -0.1336
     39 N         143.6737  142.9188  167.5033 N.ar    1  UNL1       -0.1293
     40 C         142.6393  141.8465  167.3293 C.ar    1  UNL1        0.1644
     41 N         142.5096  141.5612  165.8624 N.ar    1  UNL1       -0.3245
     42 H         141.9044  140.9017  165.4524 H       1  UNL1        0.1686
     43 C         141.8698  141.1770  168.4291 C.ar    1  UNL1        0.0550
     44 C         140.4967  141.6631  168.7871 C.ar    1  UNL1        0.0075
     45 C         139.7271  140.9936  169.8870 C.ar    1  UNL1        0.0340
     46 C         140.3307  139.8380  170.6288 C.ar    1  UNL1        0.1254
     47 N         139.5612  139.1685  171.7285 N.pl3   1  UNL1       -0.3426
     48 N         141.7039  139.3519  170.2707 N.ar    1  UNL1       -0.2295
     49 C         142.4734  140.0214  169.1709 C.ar    1  UNL1        0.1033
     50 H         138.6600  139.4876  171.9635 H       1  UNL1        0.1437
     51 H         139.9574  138.4101  172.2154 H       1  UNL1        0.1437
@<TRIPOS>BOND
     1    17    18    1
     2    18    19    1
     3    19    20    1
     4    20    21    1
     5    21     7    1
     6     7     8   ar
     7     8     9   ar
     8     9    10   ar
     9    10    11   ar
    10    11    12   ar
    11    12    24    1
    12    24    25   ar
    13    25    26   ar
    14    26    27   ar
    15    27    28   ar
    16    28    29   ar
    17    12    13   ar
    18    13     1    1
    19     1     2   ar
    20     2     3   ar
    21     3     4   ar
    22     4    30    1
    23    30    31    1
    24    31    32    1
    25    32    33    1
    26    33    34    1
    27    34    37    1
    28    37    38   ar
    29    38    39   ar
    30    39    40   ar
    31    40    43    1
    32    43    44   ar
    33    44    45   ar
    34    45    46   ar
    35    46    47    1
    36    46    48   ar
    37    48    49   ar
    38    40    41   ar
    39    34    35    1
    40    35    36    1
    41     4     5   ar
    42     5     6   ar
    43    13    14   ar
    44    14    15   ar
    45    15    16   ar
    46    21    22    1
    47    22    23    1
    48    23    18    1
    49    16     7   ar
    50    15    10   ar
    51    29    24   ar
    52     6     1   ar
    53    36    31    1
    54    41    37   ar
    55    49    43   ar
    56    47    50    1
    57    47    51    1
    58    41    42    1
@<TRIPOS>MOLECULE
*****
 51 58 0 0 0
SMALL
GASTEIGER

@<TRIPOS>ATOM
      1 C         142.1560  141.6635  156.3873 C.ar    1  UNL1        0.0192
      2 C         141.5552  140.4298  155.7814 C.ar    1  UNL1        0.0013
      3 C         140.5793  139.6065  156.5688 C.ar    1  UNL1       -0.0029
      4 C         140.2043  140.0170  157.9620 C.ar    1  UNL1       -0.0061
      5 C         140.8051  141.2506  158.5678 C.ar    1  UNL1       -0.0029
      6 C         141.7810  142.0739  157.7804 C.ar    1  UNL1        0.0013
      7 C         147.9536  143.2813  153.8338 C.ar    1  UNL1        0.1335
      8 C         147.4945  144.5306  153.1422 C.ar    1  UNL1        0.0360
      9 C         146.0595  144.9566  153.2379 C.ar    1  UNL1        0.0251
     10 C         145.0836  144.1333  154.0253 C.ar    1  UNL1        0.1171
     11 N         143.6485  144.5594  154.1210 N.ar    1  UNL1       -0.2407
     12 C         142.6726  143.7362  154.9083 C.ar    1  UNL1        0.0989
     13 C         143.1319  142.4868  155.6000 C.ar    1  UNL1        0.1005
     14 N         144.5669  142.0608  155.5042 N.ar    1  UNL1       -0.2237
     15 C         145.5427  142.8840  154.7169 C.ar    1  UNL1        0.1814
     16 N         146.9777  142.4580  154.6212 N.ar    1  UNL1       -0.2104
     17 C         153.6938  141.5771  153.4510 C.3     1  UNL1        0.0897
     18 N         152.2588  142.0031  153.5467 N.3     1  UNL1       -0.2686
     19 C         151.2616  141.1277  154.2462 C.3     1  UNL1        0.0939
     20 C         149.8265  141.5538  154.3419 C.3     1  UNL1        0.1095
     21 N         149.3887  142.8552  153.7381 N.pl3   1  UNL1       -0.2903
     22 C         150.3859  143.7306  153.0387 C.3     1  UNL1        0.1095
     23 C         151.8209  143.3046  152.9430 C.3     1  UNL1        0.0939
     24 C         141.2376  144.1622  155.0040 C.ar    1  UNL1        0.0191
     25 C         140.8381  145.2407  155.9670 C.ar    1  UNL1        0.0015
     26 C         139.4031  145.6667  156.0627 C.ar    1  UNL1        0.0000
     27 C         138.3676  145.0143  155.1955 C.ar    1  UNL1        0.0000
     28 C         138.7671  143.9358  154.2326 C.ar    1  UNL1        0.0000
     29 C         140.2021  143.5097  154.1368 C.ar    1  UNL1        0.0015
     30 C         139.2284  139.1937  158.7493 C.3     1  UNL1        0.0991
     31 N         139.2128  139.2780  160.2469 N.3     1  UNL1       -0.2689
     32 C         138.2254  140.1712  160.9376 C.3     1  UNL1        0.0728
     33 C         138.2097  140.2555  162.4352 C.3     1  UNL1        0.0249
     34 C         139.1815  139.4465  163.2421 C.3     1  UNL1        0.0613
     35 C         140.1690  138.5532  162.5513 C.3     1  UNL1        0.0249
     36 C         140.1846  138.4689  161.0538 C.3     1  UNL1        0.0728
     37 C         139.1660  139.5307  164.7396 C.ar    1  UNL1        0.1396
     38 N         138.2116  138.8199  165.6528 N.ar    1  UNL1       -0.1336
     39 N         138.5578  139.1904  167.0644 N.ar    1  UNL1       -0.1293
     40 C         139.7261  140.1303  167.0237 C.ar    1  UNL1        0.1644
     41 N         140.1020  140.3406  165.5869 N.ar    1  UNL1       -0.3245
     42 H         140.8344  140.9102  165.2577 H       1  UNL1        0.1686
     43 C         140.4003  140.7509  168.2113 C.ar    1  UNL1        0.0550
     44 C         140.8845  142.1689  168.1427 C.ar    1  UNL1        0.0075
     45 C         141.5587  142.7895  169.3303 C.ar    1  UNL1        0.0340
     46 C         141.7485  141.9922  170.5865 C.ar    1  UNL1        0.1254
     47 N         142.4226  142.6127  171.7741 N.pl3   1  UNL1       -0.3426
     48 N         141.2642  140.5740  170.6551 N.ar    1  UNL1       -0.2295
     49 C         140.5901  139.9535  169.4675 C.ar    1  UNL1        0.1033
     50 H         142.7405  143.5434  171.7290 H       1  UNL1        0.1437
     51 H         142.5472  142.0894  172.5986 H       1  UNL1        0.1437
@<TRIPOS>BOND
     1    17    18    1
     2    18    19    1
     3    19    20    1
     4    20    21    1
     5    21     7    1
     6     7     8   ar
     7     8     9   ar
     8     9    10   ar
     9    10    11   ar
    10    11    12   ar
    11    12    24    1
    12    24    25   ar
    13    25    26   ar
    14    26    27   ar
    15    27    28   ar
    16    28    29   ar
    17    12    13   ar
    18    13     1    1
    19     1     2   ar
    20     2     3   ar
    21     3     4   ar
    22     4    30    1
    23    30    31    1
    24    31    32    1
    25    32    33    1
    26    33    34    1
    27    34    37    1
    28    37    38   ar
    29    38    39   ar
    30    39    40   ar
    31    40    43    1
    32    43    44   ar
    33    44    45   ar
    34    45    46   ar
    35    46    47    1
    36    46    48   ar
    37    48    49   ar
    38    40    41   ar
    39    34    35    1
    40    35    36    1
    41     4     5   ar
    42     5     6   ar
    43    13    14   ar
    44    14    15   ar
    45    15    16   ar
    46    21    22    1
    47    22    23    1
    48    23    18    1
    49    16     7   ar
    50    15    10   ar
    51    29    24   ar
    52     6     1   ar
    53    36    31    1
    54    41    37   ar
    55    49    43   ar
    56    47    50    1
    57    47    51    1
    58    41    42    1
@<TRIPOS>MOLECULE
*****
 51 58 0 0 0
SMALL
GASTEIGER

@<TRIPOS>ATOM
      1 C         141.6789  140.3094  159.9922 C.ar    1  UNL1        0.0192
      2 C         142.7448  140.9212  160.8522 C.ar    1  UNL1        0.0013
      3 C         142.3638  141.7699  162.0289 C.ar    1  UNL1       -0.0029
      4 C         140.9168  142.0068  162.3455 C.ar    1  UNL1       -0.0061
      5 C         139.8510  141.3950  161.4855 C.ar    1  UNL1       -0.0029
      6 C         140.2320  140.5463  160.3088 C.ar    1  UNL1        0.0013
      7 C         143.3625  134.8363  156.8361 C.ar    1  UNL1        0.1335
      8 C         143.4733  135.4512  155.4724 C.ar    1  UNL1        0.0360
      9 C         143.2030  136.9147  155.2855 C.ar    1  UNL1        0.0251
     10 C         142.8220  137.7634  156.4621 C.ar    1  UNL1        0.1171
     11 N         142.5517  139.2270  156.2751 N.ar    1  UNL1       -0.2407
     12 C         142.1707  140.0757  157.4518 C.ar    1  UNL1        0.0989
     13 C         142.0599  139.4607  158.8155 C.ar    1  UNL1        0.1005
     14 N         142.3302  137.9972  159.0025 N.ar    1  UNL1       -0.2237
     15 C         142.7112  137.1485  157.8258 C.ar    1  UNL1        0.1814
     16 N         142.9814  135.6850  158.0128 N.ar    1  UNL1       -0.2104
     17 C         144.4435  128.9821  157.5844 C.3     1  UNL1        0.0897
     18 N         144.1733  130.4456  157.3973 N.3     1  UNL1       -0.2686
     19 C         142.9888  130.8928  156.5928 C.3     1  UNL1        0.0939
     20 C         142.7186  132.3564  156.4057 C.3     1  UNL1        0.1095
     21 N         143.6327  133.3727  157.0232 N.pl3   1  UNL1       -0.2903
     22 C         144.8171  132.9256  157.8277 C.3     1  UNL1        0.1095
     23 C         145.0874  131.4621  158.0147 C.3     1  UNL1        0.0939
     24 C         141.9005  141.5392  157.2648 C.ar    1  UNL1        0.0191
     25 C         143.0028  142.5369  157.4640 C.ar    1  UNL1        0.0015
     26 C         142.7325  144.0004  157.2770 C.ar    1  UNL1        0.0000
     27 C         141.3600  144.4663  156.8908 C.ar    1  UNL1        0.0000
     28 C         140.2578  143.4687  156.6916 C.ar    1  UNL1        0.0000
     29 C         140.5280  142.0051  156.8786 C.ar    1  UNL1        0.0015
     30 C         140.5358  142.8554  163.5222 C.3     1  UNL1        0.0991
     31 N         140.2579  142.2153  164.8500 N.3     1  UNL1       -0.2689
     32 C         140.7224  142.8769  166.1135 C.3     1  UNL1        0.0728
     33 C         140.4445  142.2367  167.4413 C.3     1  UNL1        0.0249
     34 C         139.7021  140.9349  167.5055 C.3     1  UNL1        0.0613
     35 C         139.2376  140.2733  166.2420 C.3     1  UNL1        0.0249
     36 C         139.5154  140.9135  164.9142 C.3     1  UNL1        0.0728
     37 C         139.4242  140.2947  168.8333 C.ar    1  UNL1        0.1396
     38 N         140.4067  140.1274  169.9543 N.ar    1  UNL1       -0.1336
     39 N         139.7047  139.4387  171.0870 N.ar    1  UNL1       -0.1293
     40 C         138.2884  139.1804  170.6659 C.ar    1  UNL1        0.1644
     41 N         138.1150  139.7095  169.2731 N.ar    1  UNL1       -0.3245
     42 H         137.2873  139.6781  168.7410 H       1  UNL1        0.1686
     43 C         137.2310  138.5107  171.4927 C.ar    1  UNL1        0.0550
     44 C         137.5644  137.2801  172.2829 C.ar    1  UNL1        0.0075
     45 C         136.5070  136.6104  173.1097 C.ar    1  UNL1        0.0340
     46 C         135.1163  137.1712  173.1461 C.ar    1  UNL1        0.1254
     47 N         134.0590  136.5015  173.9727 N.pl3   1  UNL1       -0.3426
     48 N         134.7829  138.4018  172.3557 N.ar    1  UNL1       -0.2295
     49 C         135.8402  139.0715  171.5291 C.ar    1  UNL1        0.1033
     50 H         134.2778  135.6938  174.4914 H       1  UNL1        0.1437
     51 H         133.1462  136.8695  173.9966 H       1  UNL1        0.1437
@<TRIPOS>BOND
     1    17    18    1
     2    18    19    1
     3    19    20    1
     4    20    21    1
     5    21     7    1
     6     7     8   ar
     7     8     9   ar
     8     9    10   ar
     9    10    11   ar
    10    11    12   ar
    11    12    24    1
    12    24    25   ar
    13    25    26   ar
    14    26    27   ar
    15    27    28   ar
    16    28    29   ar
    17    12    13   ar
    18    13     1    1
    19     1     2   ar
    20     2     3   ar
    21     3     4   ar
    22     4    30    1
    23    30    31    1
    24    31    32    1
    25    32    33    1
    26    33    34    1
    27    34    37    1
    28    37    38   ar
    29    38    39   ar
    30    39    40   ar
    31    40    43    1
    32    43    44   ar
    33    44    45   ar
    34    45    46   ar
    35    46    47    1
    36    46    48   ar
    37    48    49   ar
    38    40    41   ar
    39    34    35    1
    40    35    36    1
    41     4     5   ar
    42     5     6   ar
    43    13    14   ar
    44    14    15   ar
    45    15    16   ar
    46    21    22    1
    47    22    23    1
    48    23    18    1
    49    16     7   ar
    50    15    10   ar
    51    29    24   ar
    52     6     1   ar
    53    36    31    1
    54    41    37   ar
    55    49    43   ar
    56    47    50    1
    57    47    51    1
    58    41    42    1
@<TRIPOS>MOLECULE
*****
 51 58 0 0 0
SMALL
GASTEIGER

@<TRIPOS>ATOM
      1 C         140.1454  140.8494  156.4525 C.ar    1  UNL1        0.0192
      2 C         140.8349  141.9966  157.1298 C.ar    1  UNL1        0.0013
      3 C         142.0520  141.7491  157.9709 C.ar    1  UNL1       -0.0029
      4 C         142.5795  140.3544  158.1348 C.ar    1  UNL1       -0.0061
      5 C         141.8900  139.2074  157.4575 C.ar    1  UNL1       -0.0029
      6 C         140.6729  139.4549  156.6163 C.ar    1  UNL1        0.0013
      7 C         133.7611  141.1021  155.0646 C.ar    1  UNL1        0.1335
      8 C         133.9106  141.5945  153.6557 C.ar    1  UNL1        0.0360
      9 C         135.2772  141.8395  153.0879 C.ar    1  UNL1        0.0251
     10 C         136.4942  141.5920  153.9290 C.ar    1  UNL1        0.1171
     11 N         137.8609  141.8369  153.3612 N.ar    1  UNL1       -0.2407
     12 C         139.0779  141.5894  154.2023 C.ar    1  UNL1        0.0989
     13 C         138.9284  141.0969  155.6113 C.ar    1  UNL1        0.1005
     14 N         137.5618  140.8520  156.1791 N.ar    1  UNL1       -0.2237
     15 C         136.3447  141.0995  155.3380 C.ar    1  UNL1        0.1814
     16 N         134.9781  140.8546  155.9057 N.ar    1  UNL1       -0.2104
     17 C         128.2947  140.1222  157.3360 C.3     1  UNL1        0.0897
     18 N         129.6613  140.3672  156.7682 N.3     1  UNL1       -0.2686
     19 C         129.8356  141.3065  155.6117 C.3     1  UNL1        0.0939
     20 C         131.2022  141.5515  155.0439 C.3     1  UNL1        0.1095
     21 N         132.3944  140.8571  155.6325 N.pl3   1  UNL1       -0.2903
     22 C         132.2201  139.9178  156.7889 C.3     1  UNL1        0.1095
     23 C         130.8536  139.6728  157.3567 C.3     1  UNL1        0.0939
     24 C         140.4445  141.8343  153.6346 C.ar    1  UNL1        0.0191
     25 C         141.0026  143.2262  153.5968 C.ar    1  UNL1        0.0015
     26 C         142.3692  143.4711  153.0291 C.ar    1  UNL1        0.0000
     27 C         143.1778  142.3243  152.4990 C.ar    1  UNL1        0.0000
     28 C         142.6197  140.9325  152.5367 C.ar    1  UNL1        0.0000
     29 C         141.2531  140.6875  153.1045 C.ar    1  UNL1        0.0015
     30 C         143.7966  140.1069  158.9759 C.3     1  UNL1        0.0991
     31 N         143.6634  139.9597  160.4628 N.3     1  UNL1       -0.2689
     32 C         143.5613  141.1786  161.3310 C.3     1  UNL1        0.0728
     33 C         143.4281  141.0314  162.8178 C.3     1  UNL1        0.0249
     34 C         143.3970  139.6653  163.4364 C.3     1  UNL1        0.0613
     35 C         143.4991  138.4463  162.5681 C.3     1  UNL1        0.0249
     36 C         143.6323  138.5936  161.0813 C.3     1  UNL1        0.0728
     37 C         143.2638  139.5180  164.9232 C.ar    1  UNL1        0.1396
     38 N         143.8579  138.4220  165.7574 N.ar    1  UNL1       -0.1336
     39 N         143.4745  138.6675  167.1866 N.ar    1  UNL1       -0.1293
     40 C         142.6433  139.9153  167.2357 C.ar    1  UNL1        0.1644
     41 N         142.5132  140.4409  165.8368 N.ar    1  UNL1       -0.3245
     42 H         142.0214  141.2496  165.5659 H       1  UNL1        0.1686
     43 C         142.0470  140.5296  168.4674 C.ar    1  UNL1        0.0550
     44 C         140.5652  140.4712  168.6925 C.ar    1  UNL1        0.0075
     45 C         139.9689  141.0855  169.9242 C.ar    1  UNL1        0.0340
     46 C         140.8544  141.7581  170.9308 C.ar    1  UNL1        0.1254
     47 N         140.2582  142.3724  172.1625 N.pl3   1  UNL1       -0.3426
     48 N         142.3364  141.8165  170.7057 N.ar    1  UNL1       -0.2295
     49 C         142.9326  141.2022  169.4740 C.ar    1  UNL1        0.1033
     50 H         139.2856  142.3340  172.3102 H       1  UNL1        0.1437
     51 H         140.8394  142.8139  172.8231 H       1  UNL1        0.1437
@<TRIPOS>BOND
     1    17    18    1
     2    18    19    1
     3    19    20    1
     4    20    21    1
     5    21     7    1
     6     7     8   ar
     7     8     9   ar
     8     9    10   ar
     9    10    11   ar
    10    11    12   ar
    11    12    24    1
    12    24    25   ar
    13    25    26   ar
    14    26    27   ar
    15    27    28   ar
    16    28    29   ar
    17    12    13   ar
    18    13     1    1
    19     1     2   ar
    20     2     3   ar
    21     3     4   ar
    22     4    30    1
    23    30    31    1
    24    31    32    1
    25    32    33    1
    26    33    34    1
    27    34    37    1
    28    37    38   ar
    29    38    39   ar
    30    39    40   ar
    31    40    43    1
    32    43    44   ar
    33    44    45   ar
    34    45    46   ar
    35    46    47    1
    36    46    48   ar
    37    48    49   ar
    38    40    41   ar
    39    34    35    1
    40    35    36    1
    41     4     5   ar
    42     5     6   ar
    43    13    14   ar
    44    14    15   ar
    45    15    16   ar
    46    21    22    1
    47    22    23    1
    48    23    18    1
    49    16     7   ar
    50    15    10   ar
    51    29    24   ar
    52     6     1   ar
    53    36    31    1
    54    41    37   ar
    55    49    43   ar
    56    47    50    1
    57    47    51    1
    58    41    42    1
@<TRIPOS>MOLECULE
*****
 51 58 0 0 0
SMALL
GASTEIGER

@<TRIPOS>ATOM
      1 C         141.0930  139.6716  160.0515 C.ar    1  UNL1        0.0192
      2 C         142.0795  140.4180  160.8999 C.ar    1  UNL1        0.0013
      3 C         141.6545  140.9831  162.2228 C.ar    1  UNL1       -0.0029
      4 C         140.2430  140.8018  162.6972 C.ar    1  UNL1       -0.0061
      5 C         139.2566  140.0555  161.8488 C.ar    1  UNL1       -0.0029
      6 C         139.6816  139.4903  160.5259 C.ar    1  UNL1        0.0013
      7 C         143.2229  135.1077  155.8821 C.ar    1  UNL1        0.1335
      8 C         143.2204  135.9768  154.6596 C.ar    1  UNL1        0.0360
      9 C         142.7928  137.4110  154.7599 C.ar    1  UNL1        0.0251
     10 C         142.3679  137.9762  156.0828 C.ar    1  UNL1        0.1171
     11 N         141.9403  139.4105  156.1831 N.ar    1  UNL1       -0.2407
     12 C         141.5154  139.9756  157.5060 C.ar    1  UNL1        0.0989
     13 C         141.5179  139.1064  158.7286 C.ar    1  UNL1        0.1005
     14 N         141.9455  137.6722  158.6282 N.ar    1  UNL1       -0.2237
     15 C         142.3704  137.1070  157.3053 C.ar    1  UNL1        0.1814
     16 N         142.7980  135.6728  157.2050 N.ar    1  UNL1       -0.2104
     17 C         144.9331  129.3705  155.4809 C.3     1  UNL1        0.0897
     18 N         144.5056  130.8048  155.5812 N.3     1  UNL1       -0.2686
     19 C         143.5766  131.3839  154.5557 C.3     1  UNL1        0.0939
     20 C         143.1490  132.8183  154.6560 C.3     1  UNL1        0.1095
     21 N         143.6505  133.6733  155.7818 N.pl3   1  UNL1       -0.2903
     22 C         144.5795  133.0942  156.8072 C.3     1  UNL1        0.1095
     23 C         145.0070  131.6600  156.7069 C.3     1  UNL1        0.0939
     24 C         141.0878  141.4099  157.6064 C.ar    1  UNL1        0.0191
     25 C         139.6292  141.7599  157.6001 C.ar    1  UNL1        0.0015
     26 C         139.2017  143.1942  157.7004 C.ar    1  UNL1        0.0000
     27 C         140.2327  144.2784  157.8071 C.ar    1  UNL1        0.0000
     28 C         141.6912  143.9284  157.8134 C.ar    1  UNL1        0.0000
     29 C         142.1188  142.4941  157.7131 C.ar    1  UNL1        0.0015
     30 C         139.8181  141.3670  164.0201 C.3     1  UNL1        0.0991
     31 N         140.5284  140.9540  165.2751 N.3     1  UNL1       -0.2689
     32 C         141.0037  139.5406  165.4375 C.3     1  UNL1        0.0728
     33 C         141.7140  139.1276  166.6925 C.3     1  UNL1        0.0249
     34 C         141.9489  140.1280  167.7851 C.3     1  UNL1        0.0613
     35 C         141.4736  141.5415  167.6228 C.3     1  UNL1        0.0249
     36 C         140.7633  141.9544  166.3678 C.3     1  UNL1        0.0728
     37 C         142.6592  139.7151  169.0401 C.ar    1  UNL1        0.1396
     38 N         142.9709  140.6017  170.2092 N.ar    1  UNL1       -0.1336
     39 N         143.6868  139.7776  171.2380 N.ar    1  UNL1       -0.1293
     40 C         143.8175  138.3817  170.7047 C.ar    1  UNL1        0.1644
     41 N         143.1823  138.3431  169.3463 N.ar    1  UNL1       -0.3245
     42 H         143.1198  137.5555  168.7589 H       1  UNL1        0.1686
     43 C         144.4689  137.2271  171.4065 C.ar    1  UNL1        0.0550
     44 C         145.5602  137.4755  172.4051 C.ar    1  UNL1        0.0075
     45 C         146.2117  136.3209  173.1070 C.ar    1  UNL1        0.0340
     46 C         145.7717  134.9179  172.8103 C.ar    1  UNL1        0.1254
     47 N         146.4231  133.7634  173.5121 N.pl3   1  UNL1       -0.3426
     48 N         144.6802  134.6695  171.8116 N.ar    1  UNL1       -0.2295
     49 C         144.0289  135.8241  171.1098 C.ar    1  UNL1        0.1033
     50 H         147.1394  133.9264  174.1675 H       1  UNL1        0.1437
     51 H         146.1343  132.8426  173.3173 H       1  UNL1        0.1437
@<TRIPOS>BOND
     1    17    18    1
     2    18    19    1
     3    19    20    1
     4    20    21    1
     5    21     7    1
     6     7     8   ar
     7     8     9   ar
     8     9    10   ar
     9    10    11   ar
    10    11    12   ar
    11    12    24    1
    12    24    25   ar
    13    25    26   ar
    14    26    27   ar
    15    27    28   ar
    16    28    29   ar
    17    12    13   ar
    18    13     1    1
    19     1     2   ar
    20     2     3   ar
    21     3     4   ar
    22     4    30    1
    23    30    31    1
    24    31    32    1
    25    32    33    1
    26    33    34    1
    27    34    37    1
    28    37    38   ar
    29    38    39   ar
    30    39    40   ar
    31    40    43    1
    32    43    44   ar
    33    44    45   ar
    34    45    46   ar
    35    46    47    1
    36    46    48   ar
    37    48    49   ar
    38    40    41   ar
    39    34    35    1
    40    35    36    1
    41     4     5   ar
    42     5     6   ar
    43    13    14   ar
    44    14    15   ar
    45    15    16   ar
    46    21    22    1
    47    22    23    1
    48    23    18    1
    49    16     7   ar
    50    15    10   ar
    51    29    24   ar
    52     6     1   ar
    53    36    31    1
    54    41    37   ar
    55    49    43   ar
    56    47    50    1
    57    47    51    1
    58    41    42    1
