@<TRIPOS>MOLECULE
*****
 34 37 0 0 0
SMALL
GASTEIGER

@<TRIPOS>ATOM
      1 N         138.7623  141.8751  160.2303 N.3     1  UNL1       -0.2673
      2 C         139.7229  140.7291  160.3483 C.3     1  UNL1        0.1035
      3 C         140.0255  140.1397  161.6940 C.3     1  UNL1        0.1470
      4 C         140.3282  139.5503  163.0398 C.3     1  UNL1        0.1037
      5 N         139.6702  140.1068  164.2675 N.3     1  UNL1       -0.2647
      6 C         138.7096  141.2528  164.1494 C.3     1  UNL1        0.1037
      7 C         138.4069  141.8422  162.8037 C.3     1  UNL1        0.1470
      8 C         138.1043  142.4316  161.4580 C.3     1  UNL1        0.1035
      9 O         139.3675  140.6963  162.9217 O.3     1  UNL1       -0.3530
     10 C         138.4596  142.4646  158.8846 C.3     1  UNL1        0.0913
     11 C         139.4084  143.4479  158.2659 C.3     1  UNL1        0.1087
     12 N         139.7959  144.6889  159.0142 N.3     1  UNL1       -0.1780
     13 H         140.2544  145.3059  158.3437 H       1  UNL1        0.1488
     14 S         140.7022  144.5942  160.2056 S.O2    1  UNL1        0.0603
     15 O         139.7629  145.4623  160.9892 O.2     1  UNL1       -0.1530
     16 O         141.6415  143.7261  159.4220 O.2     1  UNL1       -0.1530
     17 C         143.4211  144.3099  163.7800 C.ar    1  UNL1        0.0685
     18 C         143.7878  143.6161  162.5017 C.ar    1  UNL1        0.0116
     19 C         142.8815  143.7108  161.3102 C.ar    1  UNL1        0.0206
     20 C         141.6085  144.4994  161.3970 C.ar    1  UNL1        0.1220
     21 C         141.2418  145.1932  162.6754 C.ar    1  UNL1        0.0206
     22 C         142.1481  145.0985  163.8669 C.ar    1  UNL1        0.0116
     23 N         145.2338  144.1203  166.1630 N.1     1  UNL1       -0.1908
     24 C         144.3274  144.2151  164.9714 C.1     1  UNL1        0.1004
     25 C         139.9728  139.5174  165.6132 C.3     1  UNL1        0.1015
     26 C         140.6019  140.3650  166.6790 C.ar    1  UNL1        0.0214
     27 C         141.8458  141.1474  166.3781 C.ar    1  UNL1       -0.0000
     28 C         142.4749  141.9950  167.4438 C.ar    1  UNL1        0.0101
     29 C         141.8601  142.0602  168.8104 C.ar    1  UNL1        0.0707
     30 C         140.6162  141.2778  169.1113 C.ar    1  UNL1        0.0396
     31 C         139.9871  140.4302  168.0456 C.ar    1  UNL1        0.1381
     32 F         138.7432  139.6478  168.3465 F       1  UNL1       -0.2044
     33 C         142.4892  142.9078  169.8762 C.1     1  UNL1        0.1005
     34 N         143.1183  143.7555  170.9419 N.1     1  UNL1       -0.1908
@<TRIPOS>BOND
     1    23    24    3
     2    24    17    1
     3    17    18   ar
     4    18    19   ar
     5    19    20   ar
     6    20    14    1
     7    14    15    2
     8    14    16    2
     9    14    12    1
    10    12    11    1
    11    11    10    1
    12    10     1    1
    13     1     2    1
    14     2     3    1
    15     3     4    1
    16     4     5    1
    17     5    25    1
    18    25    26    1
    19    26    27   ar
    20    27    28   ar
    21    28    29   ar
    22    29    33    1
    23    33    34    3
    24    29    30   ar
    25    30    31   ar
    26    31    32    1
    27     5     6    1
    28     6     7    1
    29     7     8    1
    30     7     9    1
    31    20    21   ar
    32    21    22   ar
    33    22    17   ar
    34     8     1    1
    35     9     3    1
    36    31    26   ar
    37    12    13    1
@<TRIPOS>MOLECULE
*****
 34 37 0 0 0
SMALL
GASTEIGER

@<TRIPOS>ATOM
      1 N         143.3693  141.1218  161.4995 N.3     1  UNL1       -0.2673
      2 C         142.1868  141.9784  161.8430 C.3     1  UNL1        0.1035
      3 C         141.9242  142.3567  163.2705 C.3     1  UNL1        0.1470
      4 C         141.6614  142.7351  164.6981 C.3     1  UNL1        0.1037
      5 N         142.5813  142.2568  165.7821 N.3     1  UNL1       -0.2647
      6 C         143.7638  141.4002  165.4386 C.3     1  UNL1        0.1037
      7 C         144.0264  141.0219  164.0111 C.3     1  UNL1        0.1470
      8 C         144.2891  140.6436  162.5836 C.3     1  UNL1        0.1035
      9 O         142.8440  141.8784  164.3545 O.3     1  UNL1       -0.3530
     10 C         143.6320  140.7435  160.0719 C.3     1  UNL1        0.0913
     11 C         143.7959  139.3006  159.6964 C.3     1  UNL1        0.1087
     12 N         142.6015  138.3935  159.6645 N.3     1  UNL1       -0.1780
     13 H         141.9964  138.7298  158.9154 H       1  UNL1        0.1488
     14 S         141.7400  138.2448  160.8833 S.O2    1  UNL1        0.0603
     15 O         142.8901  137.6255  161.6207 O.2     1  UNL1       -0.1530
     16 O         140.5899  138.8640  160.1459 O.2     1  UNL1       -0.1530
     17 C         139.1552  137.7984  164.5398 C.ar    1  UNL1        0.0685
     18 C         140.6374  137.9765  164.6862 C.ar    1  UNL1        0.0116
     19 C         141.4990  138.1253  163.4674 C.ar    1  UNL1        0.0206
     20 C         140.8784  138.0960  162.1021 C.ar    1  UNL1        0.1220
     21 C         139.3962  137.9179  161.9557 C.ar    1  UNL1        0.0206
     22 C         138.5346  137.7691  163.1745 C.ar    1  UNL1        0.0116
     23 N         137.4320  137.5008  166.9774 N.1     1  UNL1       -0.1908
     24 C         138.2937  137.6496  165.7586 C.1     1  UNL1        0.1004
     25 C         142.3186  142.6351  167.2096 C.3     1  UNL1        0.1015
     26 C         141.2449  141.9322  167.9865 C.ar    1  UNL1        0.0214
     27 C         140.7177  140.6110  167.5106 C.ar    1  UNL1       -0.0000
     28 C         139.6442  139.9082  168.2873 C.ar    1  UNL1        0.0101
     29 C         139.0978  140.5265  169.5399 C.ar    1  UNL1        0.0707
     30 C         139.6250  141.8478  170.0158 C.ar    1  UNL1        0.0396
     31 C         140.6986  142.5506  169.2390 C.ar    1  UNL1        0.1381
     32 F         141.2258  143.8718  169.7149 F       1  UNL1       -0.2044
     33 C         138.0241  139.8237  170.3167 C.1     1  UNL1        0.1005
     34 N         136.9505  139.1209  171.0935 N.1     1  UNL1       -0.1908
@<TRIPOS>BOND
     1    23    24    3
     2    24    17    1
     3    17    18   ar
     4    18    19   ar
     5    19    20   ar
     6    20    14    1
     7    14    15    2
     8    14    16    2
     9    14    12    1
    10    12    11    1
    11    11    10    1
    12    10     1    1
    13     1     2    1
    14     2     3    1
    15     3     4    1
    16     4     5    1
    17     5    25    1
    18    25    26    1
    19    26    27   ar
    20    27    28   ar
    21    28    29   ar
    22    29    33    1
    23    33    34    3
    24    29    30   ar
    25    30    31   ar
    26    31    32    1
    27     5     6    1
    28     6     7    1
    29     7     8    1
    30     7     9    1
    31    20    21   ar
    32    21    22   ar
    33    22    17   ar
    34     8     1    1
    35     9     3    1
    36    31    26   ar
    37    12    13    1
@<TRIPOS>MOLECULE
*****
 34 37 0 0 0
SMALL
GASTEIGER

@<TRIPOS>ATOM
      1 N         142.3615  138.6238  161.1180 N.3     1  UNL1       -0.2673
      2 C         143.5853  139.2741  161.6919 C.3     1  UNL1        0.1035
      3 C         143.7954  139.2980  163.1768 C.3     1  UNL1        0.1470
      4 C         144.0056  139.3219  164.6619 C.3     1  UNL1        0.1037
      5 N         142.9919  138.6956  165.5730 N.3     1  UNL1       -0.2647
      6 C         141.7680  138.0453  164.9990 C.3     1  UNL1        0.1037
      7 C         141.5579  138.0213  163.5140 C.3     1  UNL1        0.1470
      8 C         141.3478  137.9974  162.0291 C.3     1  UNL1        0.1035
      9 O         142.7817  138.6716  164.0879 O.3     1  UNL1       -0.3530
     10 C         142.1513  138.5999  159.6329 C.3     1  UNL1        0.0913
     11 C         141.7511  139.8527  158.9118 C.3     1  UNL1        0.1087
     12 N         140.3570  140.3877  159.0549 N.3     1  UNL1       -0.1780
     13 H         140.1726  140.9544  158.2271 H       1  UNL1        0.1488
     14 S         139.9941  141.2271  160.2439 S.O2    1  UNL1        0.0603
     15 O         141.2647  142.0074  160.0808 O.2     1  UNL1       -0.1530
     16 O         138.7235  140.4467  160.4070 O.2     1  UNL1       -0.1530
     17 C         138.9056  143.7453  163.8109 C.ar    1  UNL1        0.0685
     18 C         137.8287  143.2058  162.9171 C.ar    1  UNL1        0.0116
     19 C         138.1915  142.3663  161.7280 C.ar    1  UNL1        0.0206
     20 C         139.6313  142.0664  161.4329 C.ar    1  UNL1        0.1220
     21 C         140.7083  142.6060  162.3269 C.ar    1  UNL1        0.0206
     22 C         140.3454  143.4454  163.5158 C.ar    1  UNL1        0.0116
     23 N         138.1800  145.4241  166.1890 N.1     1  UNL1       -0.1908
     24 C         138.5428  144.5846  164.9999 C.1     1  UNL1        0.1004
     25 C         143.2020  138.7195  167.0580 C.3     1  UNL1        0.1015
     26 C         142.3921  139.6465  167.9153 C.ar    1  UNL1        0.0214
     27 C         141.7767  140.8763  167.3163 C.ar    1  UNL1       -0.0000
     28 C         140.9669  141.8034  168.1734 C.ar    1  UNL1        0.0101
     29 C         140.7725  141.5006  169.6296 C.ar    1  UNL1        0.0707
     30 C         141.3880  140.2708  170.2286 C.ar    1  UNL1        0.0396
     31 C         142.1978  139.3437  169.3714 C.ar    1  UNL1        0.1381
     32 F         142.8132  138.1139  169.9704 F       1  UNL1       -0.2044
     33 C         139.9627  142.4276  170.4869 C.1     1  UNL1        0.1005
     34 N         139.1529  143.3547  171.3440 N.1     1  UNL1       -0.1908
@<TRIPOS>BOND
     1    23    24    3
     2    24    17    1
     3    17    18   ar
     4    18    19   ar
     5    19    20   ar
     6    20    14    1
     7    14    15    2
     8    14    16    2
     9    14    12    1
    10    12    11    1
    11    11    10    1
    12    10     1    1
    13     1     2    1
    14     2     3    1
    15     3     4    1
    16     4     5    1
    17     5    25    1
    18    25    26    1
    19    26    27   ar
    20    27    28   ar
    21    28    29   ar
    22    29    33    1
    23    33    34    3
    24    29    30   ar
    25    30    31   ar
    26    31    32    1
    27     5     6    1
    28     6     7    1
    29     7     8    1
    30     7     9    1
    31    20    21   ar
    32    21    22   ar
    33    22    17   ar
    34     8     1    1
    35     9     3    1
    36    31    26   ar
    37    12    13    1
@<TRIPOS>MOLECULE
*****
 34 37 0 0 0
SMALL
GASTEIGER

@<TRIPOS>ATOM
      1 N         138.8501  139.1624  161.3486 N.3     1  UNL1       -0.2673
      2 C         139.4666  138.0500  162.1438 C.3     1  UNL1        0.1035
      3 C         139.4331  138.0917  163.6428 C.3     1  UNL1        0.1470
      4 C         139.3996  138.1334  165.1419 C.3     1  UNL1        0.1037
      5 N         138.7496  139.2876  165.8457 N.3     1  UNL1       -0.2647
      6 C         138.1331  140.4001  165.0505 C.3     1  UNL1        0.1037
      7 C         138.1666  140.3583  163.5514 C.3     1  UNL1        0.1470
      8 C         138.2001  140.3166  162.0524 C.3     1  UNL1        0.1035
      9 O         138.7831  139.2459  164.3466 O.3     1  UNL1       -0.3530
     10 C         138.8835  139.1208  159.8495 C.3     1  UNL1        0.0913
     11 C         140.1691  139.3775  159.1206 C.3     1  UNL1        0.1087
     12 N         140.7321  140.7665  159.0593 N.3     1  UNL1       -0.1780
     13 H         141.3749  140.7891  158.2676 H       1  UNL1        0.1488
     14 S         141.4743  141.3276  160.2358 S.O2    1  UNL1        0.0603
     15 O         142.4541  140.1945  160.1580 O.2     1  UNL1       -0.1530
     16 O         140.4945  142.4607  160.3136 O.2     1  UNL1       -0.1530
     17 C         143.7010  143.0108  163.7655 C.ar    1  UNL1        0.0685
     18 C         142.6691  141.9415  163.9702 C.ar    1  UNL1        0.0116
     19 C         141.9269  141.3804  162.7936 C.ar    1  UNL1        0.0206
     20 C         142.2165  141.8886  161.4124 C.ar    1  UNL1        0.1220
     21 C         143.2484  142.9580  161.2077 C.ar    1  UNL1        0.0206
     22 C         143.9906  143.5190  162.3843 C.ar    1  UNL1        0.0116
     23 N         145.1854  144.1329  166.1186 N.1     1  UNL1       -0.1908
     24 C         144.4432  143.5718  164.9420 C.1     1  UNL1        0.1004
     25 C         138.7161  139.3293  167.3447 C.3     1  UNL1        0.1015
     26 C         139.6440  140.2420  168.0906 C.ar    1  UNL1        0.0214
     27 C         140.8744  140.7739  167.4173 C.ar    1  UNL1       -0.0000
     28 C         141.8022  141.6865  168.1631 C.ar    1  UNL1        0.0101
     29 C         141.4997  142.0672  169.5821 C.ar    1  UNL1        0.0707
     30 C         140.2693  141.5352  170.2553 C.ar    1  UNL1        0.0396
     31 C         139.3415  140.6226  169.5095 C.ar    1  UNL1        0.1381
     32 F         138.1111  140.0907  170.1828 F       1  UNL1       -0.2044
     33 C         142.4276  142.9798  170.3279 C.1     1  UNL1        0.1005
     34 N         143.3554  143.8925  171.0737 N.1     1  UNL1       -0.1908
@<TRIPOS>BOND
     1    23    24    3
     2    24    17    1
     3    17    18   ar
     4    18    19   ar
     5    19    20   ar
     6    20    14    1
     7    14    15    2
     8    14    16    2
     9    14    12    1
    10    12    11    1
    11    11    10    1
    12    10     1    1
    13     1     2    1
    14     2     3    1
    15     3     4    1
    16     4     5    1
    17     5    25    1
    18    25    26    1
    19    26    27   ar
    20    27    28   ar
    21    28    29   ar
    22    29    33    1
    23    33    34    3
    24    29    30   ar
    25    30    31   ar
    26    31    32    1
    27     5     6    1
    28     6     7    1
    29     7     8    1
    30     7     9    1
    31    20    21   ar
    32    21    22   ar
    33    22    17   ar
    34     8     1    1
    35     9     3    1
    36    31    26   ar
    37    12    13    1
@<TRIPOS>MOLECULE
*****
 34 37 0 0 0
SMALL
GASTEIGER

@<TRIPOS>ATOM
      1 N         139.6748  141.9885  158.7780 N.3     1  UNL1       -0.2673
      2 C         138.4319  141.6774  159.5578 C.3     1  UNL1        0.1035
      3 C         138.4924  140.7291  160.7185 C.3     1  UNL1        0.1470
      4 C         138.5528  139.7808  161.8792 C.3     1  UNL1        0.1037
      5 N         139.8563  139.1437  162.2600 N.3     1  UNL1       -0.2647
      6 C         141.0993  139.4549  161.4801 C.3     1  UNL1        0.1037
      7 C         141.0388  140.4031  160.3195 C.3     1  UNL1        0.1470
      8 C         140.9783  141.3514  159.1589 C.3     1  UNL1        0.1035
      9 O         139.7958  140.0920  161.0993 O.3     1  UNL1       -0.3530
     10 C         139.6144  142.9368  157.6174 C.3     1  UNL1        0.0913
     11 C         140.0751  144.3547  157.7825 C.3     1  UNL1        0.1087
     12 N         139.7903  145.0922  159.0573 N.3     1  UNL1       -0.1780
     13 H         139.7893  146.0862  158.8285 H       1  UNL1        0.1488
     14 S         140.6955  144.9212  160.2410 S.O2    1  UNL1        0.0603
     15 O         141.8915  145.0577  159.3461 O.2     1  UNL1       -0.1530
     16 O         139.4995  144.7847  161.1360 O.2     1  UNL1       -0.1530
     17 C         143.4114  144.4081  163.7922 C.ar    1  UNL1        0.0685
     18 C         142.1439  145.1991  163.9255 C.ar    1  UNL1        0.0116
     19 C         141.2386  145.3701  162.7417 C.ar    1  UNL1        0.0206
     20 C         141.6008  144.7502  161.4247 C.ar    1  UNL1        0.1220
     21 C         142.8683  143.9591  161.2915 C.ar    1  UNL1        0.0206
     22 C         143.7736  143.7881  162.4752 C.ar    1  UNL1        0.0116
     23 N         145.2219  144.0661  166.1597 N.1     1  UNL1       -0.1908
     24 C         144.3166  144.2371  164.9759 C.1     1  UNL1        0.1004
     25 C         139.9168  138.1954  163.4206 C.3     1  UNL1        0.1015
     26 C         139.7396  138.7090  164.8188 C.ar    1  UNL1        0.0214
     27 C         138.4421  138.4908  165.5392 C.ar    1  UNL1       -0.0000
     28 C         138.2649  139.0044  166.9373 C.ar    1  UNL1        0.0101
     29 C         139.3852  139.7361  167.6151 C.ar    1  UNL1        0.0707
     30 C         140.6827  139.9543  166.8947 C.ar    1  UNL1        0.0396
     31 C         140.8599  139.4408  165.4966 C.ar    1  UNL1        0.1381
     32 F         142.1574  139.6590  164.7762 F       1  UNL1       -0.2044
     33 C         139.2080  140.2497  169.0133 C.1     1  UNL1        0.1005
     34 N         139.0308  140.7633  170.4114 N.1     1  UNL1       -0.1908
@<TRIPOS>BOND
     1    23    24    3
     2    24    17    1
     3    17    18   ar
     4    18    19   ar
     5    19    20   ar
     6    20    14    1
     7    14    15    2
     8    14    16    2
     9    14    12    1
    10    12    11    1
    11    11    10    1
    12    10     1    1
    13     1     2    1
    14     2     3    1
    15     3     4    1
    16     4     5    1
    17     5    25    1
    18    25    26    1
    19    26    27   ar
    20    27    28   ar
    21    28    29   ar
    22    29    33    1
    23    33    34    3
    24    29    30   ar
    25    30    31   ar
    26    31    32    1
    27     5     6    1
    28     6     7    1
    29     7     8    1
    30     7     9    1
    31    20    21   ar
    32    21    22   ar
    33    22    17   ar
    34     8     1    1
    35     9     3    1
    36    31    26   ar
    37    12    13    1
@<TRIPOS>MOLECULE
*****
 34 37 0 0 0
SMALL
GASTEIGER

@<TRIPOS>ATOM
      1 N         143.1550  140.4451  160.5839 N.3     1  UNL1       -0.2673
      2 C         144.2963  140.6699  161.5310 C.3     1  UNL1        0.1035
      3 C         144.1623  140.2791  162.9730 C.3     1  UNL1        0.1470
      4 C         144.0283  139.8882  164.4150 C.3     1  UNL1        0.1037
      5 N         142.7531  139.2726  164.9098 N.3     1  UNL1       -0.2647
      6 C         141.6119  139.0479  163.9627 C.3     1  UNL1        0.1037
      7 C         141.7459  139.4387  162.5207 C.3     1  UNL1        0.1470
      8 C         141.8798  139.8295  161.0788 C.3     1  UNL1        0.1035
      9 O         142.8871  139.6635  163.4678 O.3     1  UNL1       -0.3530
     10 C         143.2890  140.8360  159.1419 C.3     1  UNL1        0.0913
     11 C         143.7840  142.2045  158.7786 C.3     1  UNL1        0.1087
     12 N         142.8399  143.3701  158.7861 N.3     1  UNL1       -0.1780
     13 H         143.3916  144.1974  158.5593 H       1  UNL1        0.1488
     14 S         142.0604  143.6959  160.0255 S.O2    1  UNL1        0.0603
     15 O         140.7800  143.4372  159.2883 O.2     1  UNL1       -0.1530
     16 O         143.3408  143.9546  160.7628 O.2     1  UNL1       -0.1530
     17 C         139.7220  144.6734  163.7439 C.ar    1  UNL1        0.0685
     18 C         139.5440  145.5022  162.5065 C.ar    1  UNL1        0.0116
     19 C         140.3234  145.1764  161.2669 C.ar    1  UNL1        0.0206
     20 C         141.2809  144.0218  161.2650 C.ar    1  UNL1        0.1220
     21 C         141.4589  143.1929  162.5025 C.ar    1  UNL1        0.0206
     22 C         140.6795  143.5188  163.7419 C.ar    1  UNL1        0.0116
     23 N         138.1630  145.3250  166.2228 N.1     1  UNL1       -0.1908
     24 C         138.9425  144.9992  164.9833 C.1     1  UNL1        0.1004
     25 C         142.6192  138.8818  166.3518 C.3     1  UNL1        0.1015
     26 C         141.9522  139.8114  167.3220 C.ar    1  UNL1        0.0214
     27 C         141.1655  140.9844  166.8169 C.ar    1  UNL1       -0.0000
     28 C         140.4986  141.9139  167.7870 C.ar    1  UNL1        0.0101
     29 C         140.6185  141.6705  169.2622 C.ar    1  UNL1        0.0707
     30 C         141.4052  140.4975  169.7673 C.ar    1  UNL1        0.0396
     31 C         142.0721  139.5679  168.7972 C.ar    1  UNL1        0.1381
     32 F         142.8588  138.3949  169.3023 F       1  UNL1       -0.2044
     33 C         139.9516  142.6000  170.2324 C.1     1  UNL1        0.1005
     34 N         139.2847  143.5296  171.2026 N.1     1  UNL1       -0.1908
@<TRIPOS>BOND
     1    23    24    3
     2    24    17    1
     3    17    18   ar
     4    18    19   ar
     5    19    20   ar
     6    20    14    1
     7    14    15    2
     8    14    16    2
     9    14    12    1
    10    12    11    1
    11    11    10    1
    12    10     1    1
    13     1     2    1
    14     2     3    1
    15     3     4    1
    16     4     5    1
    17     5    25    1
    18    25    26    1
    19    26    27   ar
    20    27    28   ar
    21    28    29   ar
    22    29    33    1
    23    33    34    3
    24    29    30   ar
    25    30    31   ar
    26    31    32    1
    27     5     6    1
    28     6     7    1
    29     7     8    1
    30     7     9    1
    31    20    21   ar
    32    21    22   ar
    33    22    17   ar
    34     8     1    1
    35     9     3    1
    36    31    26   ar
    37    12    13    1
@<TRIPOS>MOLECULE
*****
 34 37 0 0 0
SMALL
GASTEIGER

@<TRIPOS>ATOM
      1 N         143.9913  141.5950  160.1142 N.3     1  UNL1       -0.2673
      2 C         143.1988  140.3578  160.4164 C.3     1  UNL1        0.1035
      3 C         142.9526  139.9540  161.8398 C.3     1  UNL1        0.1470
      4 C         142.7063  139.5501  163.2633 C.3     1  UNL1        0.1037
      5 N         143.2526  140.3834  164.3846 N.3     1  UNL1       -0.2647
      6 C         144.0451  141.6206  164.0823 C.3     1  UNL1        0.1037
      7 C         144.2914  142.0244  162.6588 C.3     1  UNL1        0.1470
      8 C         144.5376  142.4283  161.2354 C.3     1  UNL1        0.1035
      9 O         143.4989  140.7873  162.9611 O.3     1  UNL1       -0.3530
     10 C         144.2376  141.9988  158.6907 C.3     1  UNL1        0.0913
     11 C         143.5101  143.1740  158.1079 C.3     1  UNL1        0.1087
     12 N         142.0183  143.2698  158.2329 N.3     1  UNL1       -0.1780
     13 H         141.7127  143.9844  157.5723 H       1  UNL1        0.1488
     14 S         141.3968  143.6086  159.5554 S.O2    1  UNL1        0.0603
     15 O         142.2929  144.8060  159.6698 O.2     1  UNL1       -0.1530
     16 O         140.5006  142.4112  159.4409 O.2     1  UNL1       -0.1530
     17 C         139.5321  144.6251  163.5227 C.ar    1  UNL1        0.0685
     18 C         138.7425  143.8711  162.4941 C.ar    1  UNL1        0.0116
     19 C         139.3641  143.5323  161.1716 C.ar    1  UNL1        0.0206
     20 C         140.7752  143.9474  160.8778 C.ar    1  UNL1        0.1220
     21 C         141.5648  144.7014  161.9065 C.ar    1  UNL1        0.0206
     22 C         140.9432  145.0402  163.2289 C.ar    1  UNL1        0.0116
     23 N         138.2889  145.3027  166.1676 N.1     1  UNL1       -0.1908
     24 C         138.9106  144.9638  164.8451 C.1     1  UNL1        0.1004
     25 C         143.0064  139.9796  165.8080 C.3     1  UNL1        0.1015
     26 C         142.3571  140.9411  166.7588 C.ar    1  UNL1        0.0214
     27 C         142.9164  141.1245  168.1385 C.ar    1  UNL1       -0.0000
     28 C         142.2672  142.0860  169.0893 C.ar    1  UNL1        0.0101
     29 C         141.0587  142.8641  168.6605 C.ar    1  UNL1        0.0707
     30 C         140.4994  142.6807  167.2808 C.ar    1  UNL1        0.0396
     31 C         141.1486  141.7192  166.3300 C.ar    1  UNL1        0.1381
     32 F         140.5892  141.5358  164.9503 F       1  UNL1       -0.2044
     33 C         140.4094  143.8256  169.6113 C.1     1  UNL1        0.1005
     34 N         139.7602  144.7871  170.5620 N.1     1  UNL1       -0.1908
@<TRIPOS>BOND
     1    23    24    3
     2    24    17    1
     3    17    18   ar
     4    18    19   ar
     5    19    20   ar
     6    20    14    1
     7    14    15    2
     8    14    16    2
     9    14    12    1
    10    12    11    1
    11    11    10    1
    12    10     1    1
    13     1     2    1
    14     2     3    1
    15     3     4    1
    16     4     5    1
    17     5    25    1
    18    25    26    1
    19    26    27   ar
    20    27    28   ar
    21    28    29   ar
    22    29    33    1
    23    33    34    3
    24    29    30   ar
    25    30    31   ar
    26    31    32    1
    27     5     6    1
    28     6     7    1
    29     7     8    1
    30     7     9    1
    31    20    21   ar
    32    21    22   ar
    33    22    17   ar
    34     8     1    1
    35     9     3    1
    36    31    26   ar
    37    12    13    1
@<TRIPOS>MOLECULE
*****
 34 37 0 0 0
SMALL
GASTEIGER

@<TRIPOS>ATOM
      1 N         141.7639  144.0652  160.3375 N.3     1  UNL1       -0.2673
      2 C         142.5246  142.7945  160.5758 C.3     1  UNL1        0.1035
      3 C         142.9101  142.4016  161.9711 C.3     1  UNL1        0.1470
      4 C         143.2957  142.0087  163.3665 C.3     1  UNL1        0.1037
      5 N         142.9205  142.8864  164.5236 N.3     1  UNL1       -0.2647
      6 C         142.1598  144.1571  164.2853 C.3     1  UNL1        0.1037
      7 C         141.7743  144.5500  162.8899 C.3     1  UNL1        0.1470
      8 C         141.3888  144.9429  161.4946 C.3     1  UNL1        0.1035
      9 O         142.5350  143.2794  163.1282 O.3     1  UNL1       -0.3530
     10 C         141.3783  144.4581  158.9422 C.3     1  UNL1        0.0913
     11 C         140.3660  143.6484  158.1876 C.3     1  UNL1        0.1087
     12 N         139.0368  143.3400  158.8107 N.3     1  UNL1       -0.1780
     13 H         138.6488  144.2274  159.1309 H       1  UNL1        0.1488
     14 S         138.9533  142.3885  159.9672 S.O2    1  UNL1        0.0603
     15 O         138.2538  143.4374  160.7798 O.2     1  UNL1       -0.1530
     16 O         139.6528  141.3395  159.1546 O.2     1  UNL1       -0.1530
     17 C         138.7028  139.5337  163.4368 C.ar    1  UNL1        0.0685
     18 C         139.7424  139.3334  162.3743 C.ar    1  UNL1        0.0116
     19 C         139.8260  140.2850  161.2177 C.ar    1  UNL1        0.0206
     20 C         138.8698  141.4369  161.1237 C.ar    1  UNL1        0.1220
     21 C         137.8301  141.6372  162.1863 C.ar    1  UNL1        0.0206
     22 C         137.7466  140.6857  163.3428 C.ar    1  UNL1        0.0116
     23 N         138.5358  137.6305  165.7498 N.1     1  UNL1       -0.1908
     24 C         138.6193  138.5822  164.5932 C.1     1  UNL1        0.1004
     25 C         143.3061  142.4935  165.9189 C.3     1  UNL1        0.1015
     26 C         142.2695  141.9546  166.8598 C.ar    1  UNL1        0.0214
     27 C         140.9722  141.4261  166.3236 C.ar    1  UNL1       -0.0000
     28 C         139.9357  140.8872  167.2644 C.ar    1  UNL1        0.0101
     29 C         140.1966  140.8768  168.7415 C.ar    1  UNL1        0.0707
     30 C         141.4939  141.4053  169.2777 C.ar    1  UNL1        0.0396
     31 C         142.5304  141.9442  168.3369 C.ar    1  UNL1        0.1381
     32 F         143.8278  142.4727  168.8731 F       1  UNL1       -0.2044
     33 C         139.1600  140.3378  169.6824 C.1     1  UNL1        0.1005
     34 N         138.1236  139.7989  170.6232 N.1     1  UNL1       -0.1908
@<TRIPOS>BOND
     1    23    24    3
     2    24    17    1
     3    17    18   ar
     4    18    19   ar
     5    19    20   ar
     6    20    14    1
     7    14    15    2
     8    14    16    2
     9    14    12    1
    10    12    11    1
    11    11    10    1
    12    10     1    1
    13     1     2    1
    14     2     3    1
    15     3     4    1
    16     4     5    1
    17     5    25    1
    18    25    26    1
    19    26    27   ar
    20    27    28   ar
    21    28    29   ar
    22    29    33    1
    23    33    34    3
    24    29    30   ar
    25    30    31   ar
    26    31    32    1
    27     5     6    1
    28     6     7    1
    29     7     8    1
    30     7     9    1
    31    20    21   ar
    32    21    22   ar
    33    22    17   ar
    34     8     1    1
    35     9     3    1
    36    31    26   ar
    37    12    13    1
@<TRIPOS>MOLECULE
*****
 34 37 0 0 0
SMALL
GASTEIGER

@<TRIPOS>ATOM
      1 N         141.9504  140.4871  159.9442 N.3     1  UNL1       -0.2673
      2 C         142.1862  139.2680  160.7856 C.3     1  UNL1        0.1035
      3 C         141.2944  138.9813  161.9571 C.3     1  UNL1        0.1470
      4 C         140.4025  138.6946  163.1287 C.3     1  UNL1        0.1037
      5 N         139.2749  139.6271  163.4587 N.3     1  UNL1       -0.2647
      6 C         139.0391  140.8463  162.6172 C.3     1  UNL1        0.1037
      7 C         139.9309  141.1329  161.4457 C.3     1  UNL1        0.1470
      8 C         140.8227  141.4196  160.2742 C.3     1  UNL1        0.1035
      9 O         140.1667  139.9138  162.2872 O.3     1  UNL1       -0.3530
     10 C         142.8422  140.7738  158.7726 C.3     1  UNL1        0.0913
     11 C         144.2092  141.3504  158.9940 C.3     1  UNL1        0.1087
     12 N         144.3693  142.6240  159.7701 N.3     1  UNL1       -0.1780
     13 H         145.3078  142.9722  159.5742 H       1  UNL1        0.1488
     14 S         144.2123  142.6182  161.2618 S.O2    1  UNL1        0.0603
     15 O         143.3627  143.8514  161.1773 O.2     1  UNL1       -0.1530
     16 O         145.0618  141.3849  161.3464 O.2     1  UNL1       -0.1530
     17 C         143.7411  142.6004  165.7370 C.ar    1  UNL1        0.0685
     18 C         144.1001  143.8713  165.0257 C.ar    1  UNL1        0.0116
     19 C         144.2572  143.8772  163.5340 C.ar    1  UNL1        0.0206
     20 C         144.0552  142.6123  162.7535 C.ar    1  UNL1        0.1220
     21 C         143.6962  141.3413  163.4649 C.ar    1  UNL1        0.0206
     22 C         143.5392  141.3354  164.9566 C.ar    1  UNL1        0.0116
     23 N         143.4271  142.5887  168.7206 N.1     1  UNL1       -0.1908
     24 C         143.5841  142.5945  167.2287 C.1     1  UNL1        0.1004
     25 C         138.3830  139.3404  164.6302 C.3     1  UNL1        0.1015
     26 C         138.8074  139.7419  166.0118 C.ar    1  UNL1        0.0214
     27 C         139.8833  140.7705  166.1967 C.ar    1  UNL1       -0.0000
     28 C         140.3077  141.1720  167.5783 C.ar    1  UNL1        0.0101
     29 C         139.6561  140.5448  168.7749 C.ar    1  UNL1        0.0707
     30 C         138.5802  139.5162  168.5900 C.ar    1  UNL1        0.0396
     31 C         138.1558  139.1147  167.2085 C.ar    1  UNL1        0.1381
     32 F         137.0798  138.0860  167.0236 F       1  UNL1       -0.2044
     33 C         140.0805  140.9463  170.1565 C.1     1  UNL1        0.1005
     34 N         140.5047  141.3477  171.5381 N.1     1  UNL1       -0.1908
@<TRIPOS>BOND
     1    23    24    3
     2    24    17    1
     3    17    18   ar
     4    18    19   ar
     5    19    20   ar
     6    20    14    1
     7    14    15    2
     8    14    16    2
     9    14    12    1
    10    12    11    1
    11    11    10    1
    12    10     1    1
    13     1     2    1
    14     2     3    1
    15     3     4    1
    16     4     5    1
    17     5    25    1
    18    25    26    1
    19    26    27   ar
    20    27    28   ar
    21    28    29   ar
    22    29    33    1
    23    33    34    3
    24    29    30   ar
    25    30    31   ar
    26    31    32    1
    27     5     6    1
    28     6     7    1
    29     7     8    1
    30     7     9    1
    31    20    21   ar
    32    21    22   ar
    33    22    17   ar
    34     8     1    1
    35     9     3    1
    36    31    26   ar
    37    12    13    1
