@<TRIPOS>MOLECULE
*****
 39 44 0 0 0
SMALL
GASTEIGER

@<TRIPOS>ATOM
      1 C         142.8139  135.4809  157.7131 C.ar    1  UNL1        0.2400
      2 N         142.2189  134.9199  156.4556 N.ar    1  UNL1       -0.2090
      3 C         141.4363  135.8086  155.5348 C.ar    1  UNL1        0.1042
      4 C         141.0572  137.3037  155.5690 C.ar    1  UNL1        0.0463
      5 C         141.8726  136.8785  156.7541 C.ar    1  UNL1        0.0242
      6 C         142.6262  136.9304  158.0500 C.ar    1  UNL1        0.1179
      7 N         143.2364  137.4539  159.3163 N.pl3   1  UNL1       -0.2104
      8 S         143.6370  138.3922  160.4159 S.O2    1  UNL1        0.0737
      9 O         144.1283  136.9888  160.6126 O.2     1  UNL1       -0.1499
     10 O         144.4323  138.2030  161.6734 O.2     1  UNL1       -0.1499
     11 C         143.7238  139.9952  161.2853 C.ar    1  UNL1        0.1253
     12 C         144.5009  139.9263  162.5664 C.ar    1  UNL1        0.0202
     13 C         144.6706  141.1565  163.4077 C.ar    1  UNL1        0.0015
     14 C         144.0631  142.4556  162.9679 C.ar    1  UNL1        0.0046
     15 C         143.2860  142.5245  161.6867 C.ar    1  UNL1        0.0547
     16 C         143.1163  141.2943  160.8455 C.ar    1  UNL1        0.0247
     17 C         142.6939  143.8415  161.2808 C.2     1  UNL1        0.2461
     18 O         143.1519  144.6841  162.4342 O.2     1  UNL1       -0.2701
     19 N         141.9510  144.8812  160.4953 N.am    1  UNL1       -0.2969
     20 C         141.1378  145.5309  159.4152 C.3     1  UNL1        0.1181
     21 C         140.3424  145.7201  158.1575 C.ar    1  UNL1        0.0163
     22 C         139.6520  146.9590  157.5504 C.ar    1  UNL1        0.0962
     23 N         138.8517  147.1882  156.3026 N.ar    1  UNL1       -0.2429
     24 C         138.5951  146.0523  155.3570 C.ar    1  UNL1        0.0949
     25 C         139.1387  144.6873  155.6594 C.ar    1  UNL1        0.0027
     26 C         139.6511  145.4284  156.8587 C.ar    1  UNL1       -0.0034
     27 C         138.8608  143.5773  154.6896 C.3     1  UNL1        0.0754
     28 C         138.8475  142.2185  154.0544 C.ar    1  UNL1        0.0862
     29 C         138.0303  142.7352  152.9075 C.ar    1  UNL1        0.1161
     30 N         137.7780  141.5943  151.9670 N.ar    1  UNL1       -0.2181
     31 C         138.4392  140.3725  152.5325 C.ar    1  UNL1        0.1966
     32 S         138.9077  138.9557  152.6846 S.2     1  UNL1       -0.0278
     33 C         140.2684  138.1600  154.6233 C.ar    1  UNL1        0.1350
     34 N         139.5916  139.3547  154.0193 N.ar    1  UNL1       -0.1569
     35 N         139.1002  140.7582  153.8225 N.ar    1  UNL1       -0.2085
     36 H         143.6542  136.6268  159.6488 H       1  UNL1        0.1739
     37 H         142.0911  145.6588  161.0826 H       1  UNL1        0.1501
     38 C         144.4043  133.4586  158.0749 C.3     1  UNL1        0.2543
     39 O         143.5965  134.5921  158.6338 O.3     1  UNL1       -0.4553
@<TRIPOS>BOND
     1    38    39    1
     2    39     1    1
     3     1     2   ar
     4     2     3   ar
     5     3     4   ar
     6     4     5   ar
     7     5     6   ar
     8     6     7    1
     9     7     8    1
    10     8     9    2
    11     8    10    2
    12     8    11    1
    13    11    12   ar
    14    12    13   ar
    15    13    14   ar
    16    14    15   ar
    17    15    16   ar
    18    15    17    1
    19    17    18    2
    20    17    19   am
    21    19    20    1
    22    20    21    1
    23    21    22   ar
    24    22    23   ar
    25    23    24   ar
    26    24    25   ar
    27    25    26   ar
    28    25    27    1
    29    27    28    1
    30    28    29   ar
    31    29    30   ar
    32    30    31   ar
    33    31    32   ar
    34    32    33   ar
    35    33    34   ar
    36    34    35   ar
    37     6     1   ar
    38    16    11   ar
    39    26    21   ar
    40    35    28   ar
    41    33     4    1
    42    35    31   ar
    43     7    36    1
    44    19    37    1
@<TRIPOS>MOLECULE
*****
 39 44 0 0 0
SMALL
GASTEIGER

@<TRIPOS>ATOM
      1 C         140.3723  145.8214  154.4156 C.ar    1  UNL1        0.2400
      2 N         139.9179  147.0209  155.1933 N.ar    1  UNL1       -0.2090
      3 C         139.8253  146.9540  156.6890 C.ar    1  UNL1        0.1042
      4 C         140.1110  145.8450  157.7227 C.ar    1  UNL1        0.0463
      5 C         140.3630  145.4084  156.3100 C.ar    1  UNL1        0.0242
      6 C         140.7340  144.5550  155.1335 C.ar    1  UNL1        0.1179
      7 N         141.1839  143.3772  154.3209 N.pl3   1  UNL1       -0.2104
      8 S         141.6639  142.0026  153.9602 S.O2    1  UNL1        0.0737
      9 O         141.4595  142.8997  152.7755 O.2     1  UNL1       -0.1499
     10 O         141.9797  141.3488  152.6477 O.2     1  UNL1       -0.1499
     11 C         142.2025  140.2895  154.2887 C.ar    1  UNL1        0.1253
     12 C         142.5471  139.5333  153.0400 C.ar    1  UNL1        0.0202
     13 C         143.0089  138.1090  153.1292 C.ar    1  UNL1        0.0015
     14 C         143.1263  137.4409  154.4671 C.ar    1  UNL1        0.0046
     15 C         142.7817  138.1971  155.7158 C.ar    1  UNL1        0.0547
     16 C         142.3198  139.6214  155.6266 C.ar    1  UNL1        0.0247
     17 C         142.9118  137.4946  157.0347 C.2     1  UNL1        0.2461
     18 O         143.3891  136.1558  156.5554 O.2     1  UNL1       -0.2701
     19 N         142.8848  137.2328  158.5114 N.am    1  UNL1       -0.2969
     20 C         142.7035  137.4401  159.9860 C.3     1  UNL1        0.1181
     21 C         142.3877  138.0940  161.2985 C.ar    1  UNL1        0.0163
     22 C         142.4473  137.5750  162.7501 C.ar    1  UNL1        0.0962
     23 N         142.1416  138.1937  164.0820 N.ar    1  UNL1       -0.2429
     24 C         141.6681  139.6150  164.1576 C.ar    1  UNL1        0.0949
     25 C         141.5002  140.4175  162.9015 C.ar    1  UNL1        0.0027
     26 C         141.9716  139.1237  162.3068 C.ar    1  UNL1       -0.0034
     27 C         141.0247  141.8353  163.0184 C.3     1  UNL1        0.0754
     28 C         140.5965  143.2235  162.6445 C.ar    1  UNL1        0.0862
     29 C         140.3721  143.5695  164.0867 C.ar    1  UNL1        0.1161
     30 N         139.8991  144.9913  164.1542 N.ar    1  UNL1       -0.2181
     31 C         139.8311  145.5241  162.7537 C.ar    1  UNL1        0.1966
     32 S         139.6118  146.4589  161.6013 S.2     1  UNL1       -0.0278
     33 C         140.0055  145.8174  159.2188 C.ar    1  UNL1        0.1350
     34 N         140.0577  145.3286  160.6360 N.ar    1  UNL1       -0.1569
     35 N         140.2621  144.4315  161.8207 N.ar    1  UNL1       -0.2085
     36 H         141.1238  143.7695  153.4200 H       1  UNL1        0.1739
     37 H         143.1922  136.2975  158.5158 H       1  UNL1        0.1501
     38 C         141.6064  146.6132  152.2709 C.3     1  UNL1        0.2543
     39 O         140.4649  145.8883  152.9199 O.3     1  UNL1       -0.4553
@<TRIPOS>BOND
     1    38    39    1
     2    39     1    1
     3     1     2   ar
     4     2     3   ar
     5     3     4   ar
     6     4     5   ar
     7     5     6   ar
     8     6     7    1
     9     7     8    1
    10     8     9    2
    11     8    10    2
    12     8    11    1
    13    11    12   ar
    14    12    13   ar
    15    13    14   ar
    16    14    15   ar
    17    15    16   ar
    18    15    17    1
    19    17    18    2
    20    17    19   am
    21    19    20    1
    22    20    21    1
    23    21    22   ar
    24    22    23   ar
    25    23    24   ar
    26    24    25   ar
    27    25    26   ar
    28    25    27    1
    29    27    28    1
    30    28    29   ar
    31    29    30   ar
    32    30    31   ar
    33    31    32   ar
    34    32    33   ar
    35    33    34   ar
    36    34    35   ar
    37     6     1   ar
    38    16    11   ar
    39    26    21   ar
    40    35    28   ar
    41    33     4    1
    42    35    31   ar
    43     7    36    1
    44    19    37    1
@<TRIPOS>MOLECULE
*****
 39 44 0 0 0
SMALL
GASTEIGER

@<TRIPOS>ATOM
      1 C         143.1070  136.2605  155.9788 C.ar    1  UNL1        0.2400
      2 N         143.3130  135.3464  157.1502 N.ar    1  UNL1       -0.2090
      3 C         143.0813  135.8498  158.5441 C.ar    1  UNL1        0.1042
      4 C         142.6401  137.2101  159.1230 C.ar    1  UNL1        0.0463
      5 C         142.7267  137.2107  157.6256 C.ar    1  UNL1        0.0242
      6 C         142.6693  137.6778  156.2013 C.ar    1  UNL1        0.1179
      7 N         142.4740  138.5610  155.0047 N.pl3   1  UNL1       -0.2104
      8 S         142.1620  139.7643  154.1653 S.O2    1  UNL1        0.0737
      9 O         142.5688  138.5616  153.3666 O.2     1  UNL1       -0.1499
     10 O         142.1768  140.0014  152.6843 O.2     1  UNL1       -0.1499
     11 C         141.6619  141.4929  153.8570 C.ar    1  UNL1        0.1253
     12 C         141.6405  141.8462  152.3994 C.ar    1  UNL1        0.0202
     13 C         141.2510  143.2292  151.9686 C.ar    1  UNL1        0.0015
     14 C         140.8829  144.2588  152.9954 C.ar    1  UNL1        0.0046
     15 C         140.9042  143.9055  154.4530 C.ar    1  UNL1        0.0547
     16 C         141.2937  142.5225  154.8838 C.ar    1  UNL1        0.0247
     17 C         140.5297  144.9623  155.4494 C.2     1  UNL1        0.2461
     18 O         140.2442  146.0968  154.5105 O.2     1  UNL1       -0.2701
     19 N         140.2492  145.6458  156.7548 N.am    1  UNL1       -0.2969
     20 C         140.0931  145.8817  158.2279 C.3     1  UNL1        0.1181
     21 C         140.0783  145.6446  159.7090 C.ar    1  UNL1        0.0163
     22 C         139.7333  146.5657  160.8976 C.ar    1  UNL1        0.0962
     23 N         139.7064  146.3678  162.3843 N.ar    1  UNL1       -0.2429
     24 C         140.0715  145.0361  162.9702 C.ar    1  UNL1        0.0949
     25 C         140.4635  143.9024  162.0696 C.ar    1  UNL1        0.0027
     26 C         140.2064  144.9601  161.0376 C.ar    1  UNL1       -0.0034
     27 C         140.8218  142.5862  162.6934 C.3     1  UNL1        0.0754
     28 C         141.2425  141.1539  162.8412 C.ar    1  UNL1        0.0862
     29 C         141.1277  141.2483  164.3338 C.ar    1  UNL1        0.1161
     30 N         141.4941  139.9137  164.9122 N.ar    1  UNL1       -0.2181
     31 C         141.8354  138.9946  163.7771 C.ar    1  UNL1        0.1966
     32 S         142.2475  137.7653  163.0226 S.2     1  UNL1       -0.0278
     33 C         142.4187  137.6761  160.5315 C.ar    1  UNL1        0.1350
     34 N         142.0867  138.5583  161.6984 N.ar    1  UNL1       -0.1569
     35 N         141.6799  139.7610  162.4971 N.ar    1  UNL1       -0.2085
     36 H         142.7067  137.9224  154.2924 H       1  UNL1        0.1739
     37 H         140.0012  146.5380  156.4206 H       1  UNL1        0.1501
     38 C         142.2437  135.0362  153.8561 C.3     1  UNL1        0.2543
     39 O         143.3387  135.7571  154.5849 O.3     1  UNL1       -0.4553
@<TRIPOS>BOND
     1    38    39    1
     2    39     1    1
     3     1     2   ar
     4     2     3   ar
     5     3     4   ar
     6     4     5   ar
     7     5     6   ar
     8     6     7    1
     9     7     8    1
    10     8     9    2
    11     8    10    2
    12     8    11    1
    13    11    12   ar
    14    12    13   ar
    15    13    14   ar
    16    14    15   ar
    17    15    16   ar
    18    15    17    1
    19    17    18    2
    20    17    19   am
    21    19    20    1
    22    20    21    1
    23    21    22   ar
    24    22    23   ar
    25    23    24   ar
    26    24    25   ar
    27    25    26   ar
    28    25    27    1
    29    27    28    1
    30    28    29   ar
    31    29    30   ar
    32    30    31   ar
    33    31    32   ar
    34    32    33   ar
    35    33    34   ar
    36    34    35   ar
    37     6     1   ar
    38    16    11   ar
    39    26    21   ar
    40    35    28   ar
    41    33     4    1
    42    35    31   ar
    43     7    36    1
    44    19    37    1
@<TRIPOS>MOLECULE
*****
 39 44 0 0 0
SMALL
GASTEIGER

@<TRIPOS>ATOM
      1 C         143.8979  141.8651  162.3237 C.ar    1  UNL1        0.2400
      2 N         144.5205  140.6114  162.8629 N.ar    1  UNL1       -0.2090
      3 C         144.3936  139.3242  162.1030 C.ar    1  UNL1        0.1042
      4 C         143.7130  138.9379  160.7735 C.ar    1  UNL1        0.0463
      5 C         143.5541  140.3903  161.1129 C.ar    1  UNL1        0.0242
      6 C         143.1485  141.8317  161.0248 C.ar    1  UNL1        0.1179
      7 N         142.5401  143.1059  160.5186 N.pl3   1  UNL1       -0.2104
      8 S         141.7949  144.0749  159.6492 S.O2    1  UNL1        0.0737
      9 O         142.3662  144.6946  160.8899 O.2     1  UNL1       -0.1499
     10 O         141.5087  145.5417  159.7766 O.2     1  UNL1       -0.1499
     11 C         140.8195  144.5963  158.1967 C.ar    1  UNL1        0.1253
     12 C         140.4725  146.0555  158.2164 C.ar    1  UNL1        0.0202
     13 C         139.6726  146.6513  157.0961 C.ar    1  UNL1        0.0015
     14 C         139.2198  145.7880  155.9561 C.ar    1  UNL1        0.0046
     15 C         139.5669  144.3288  155.9364 C.ar    1  UNL1        0.0547
     16 C         140.3668  143.7330  157.0567 C.ar    1  UNL1        0.0247
     17 C         139.0960  143.4985  154.7793 C.2     1  UNL1        0.2461
     18 O         138.3779  144.5551  153.9932 O.2     1  UNL1       -0.2701
     19 N         138.8615  142.3204  153.8809 N.am    1  UNL1       -0.2969
     20 C         138.8889  140.9221  153.3387 C.3     1  UNL1        0.1181
     21 C         139.1751  139.4551  153.2113 C.ar    1  UNL1        0.0163
     22 C         138.7986  138.4209  152.1301 C.ar    1  UNL1        0.0962
     23 N         139.0640  136.9536  151.9669 N.ar    1  UNL1       -0.2429
     24 C         139.8524  136.2139  153.0069 C.ar    1  UNL1        0.0949
     25 C         140.3753  136.9415  154.2099 C.ar    1  UNL1        0.0027
     26 C         139.6891  138.0785  153.5125 C.ar    1  UNL1       -0.0034
     27 C         141.1591  136.1671  155.2276 C.3     1  UNL1        0.0754
     28 C         141.9559  135.8394  156.4556 C.ar    1  UNL1        0.0862
     29 C         142.0625  134.4040  156.0336 C.ar    1  UNL1        0.1161
     30 N         142.8517  133.6712  157.0778 N.ar    1  UNL1       -0.2181
     31 C         143.2327  134.6538  158.1451 C.ar    1  UNL1        0.1966
     32 S         143.8232  135.2273  159.3991 S.2     1  UNL1       -0.0278
     33 C         143.6080  137.6318  160.0432 C.ar    1  UNL1        0.1350
     34 N         143.2505  136.6137  159.0013 N.ar    1  UNL1       -0.1569
     35 N         142.6791  135.9938  157.7605 N.ar    1  UNL1       -0.2085
     36 H         142.8129  143.7146  161.2427 H       1  UNL1        0.1739
     37 H         138.3396  142.7594  153.1709 H       1  UNL1        0.1501
     38 C         144.4265  143.1335  164.5286 C.3     1  UNL1        0.2543
     39 O         144.0248  143.1521  163.0835 O.3     1  UNL1       -0.4553
@<TRIPOS>BOND
     1    38    39    1
     2    39     1    1
     3     1     2   ar
     4     2     3   ar
     5     3     4   ar
     6     4     5   ar
     7     5     6   ar
     8     6     7    1
     9     7     8    1
    10     8     9    2
    11     8    10    2
    12     8    11    1
    13    11    12   ar
    14    12    13   ar
    15    13    14   ar
    16    14    15   ar
    17    15    16   ar
    18    15    17    1
    19    17    18    2
    20    17    19   am
    21    19    20    1
    22    20    21    1
    23    21    22   ar
    24    22    23   ar
    25    23    24   ar
    26    24    25   ar
    27    25    26   ar
    28    25    27    1
    29    27    28    1
    30    28    29   ar
    31    29    30   ar
    32    30    31   ar
    33    31    32   ar
    34    32    33   ar
    35    33    34   ar
    36    34    35   ar
    37     6     1   ar
    38    16    11   ar
    39    26    21   ar
    40    35    28   ar
    41    33     4    1
    42    35    31   ar
    43     7    36    1
    44    19    37    1
@<TRIPOS>MOLECULE
*****
 39 44 0 0 0
SMALL
GASTEIGER

@<TRIPOS>ATOM
      1 C         143.6004  142.9330  161.4696 C.ar    1  UNL1        0.2400
      2 N         144.3192  141.7735  162.0931 N.ar    1  UNL1       -0.2090
      3 C         144.2211  140.4102  161.4750 C.ar    1  UNL1        0.1042
      4 C         143.4904  139.8561  160.2344 C.ar    1  UNL1        0.0463
      5 C         143.2713  141.3263  160.4356 C.ar    1  UNL1        0.0242
      6 C         142.7835  142.7294  160.2282 C.ar    1  UNL1        0.1179
      7 N         142.0795  143.9135  159.6346 N.pl3   1  UNL1       -0.2104
      8 S         141.2358  144.7502  158.7192 S.O2    1  UNL1        0.0737
      9 O         141.8399  145.5217  159.8548 O.2     1  UNL1       -0.1499
     10 O         140.8774  146.2067  158.7161 O.2     1  UNL1       -0.1499
     11 C         140.1548  145.0710  157.2833 C.ar    1  UNL1        0.1253
     12 C         139.7303  146.5058  157.1777 C.ar    1  UNL1        0.0202
     13 C         138.8386  146.9432  156.0537 C.ar    1  UNL1        0.0015
     14 C         138.3714  145.9459  155.0353 C.ar    1  UNL1        0.0046
     15 C         138.7960  144.5112  155.1409 C.ar    1  UNL1        0.0547
     16 C         139.6877  144.0737  156.2649 C.ar    1  UNL1        0.0247
     17 C         138.3081  143.5440  154.1033 C.2     1  UNL1        0.2461
     18 O         137.4911  144.4777  153.2602 O.2     1  UNL1       -0.2701
     19 N         138.0891  142.2696  153.3433 N.am    1  UNL1       -0.2969
     20 C         138.1628  140.8258  152.9431 C.3     1  UNL1        0.1181
     21 C         138.5211  139.3692  152.9462 C.ar    1  UNL1        0.0163
     22 C         138.1426  138.2119  151.9988 C.ar    1  UNL1        0.0962
     23 N         138.4783  136.7503  151.9676 N.ar    1  UNL1       -0.2429
     24 C         139.3619  136.1610  153.0269 C.ar    1  UNL1        0.0949
     25 C         139.9098  137.0333  154.1172 C.ar    1  UNL1        0.0027
     26 C         139.1253  138.0576  153.3522 C.ar    1  UNL1       -0.0034
     27 C         140.7897  136.4071  155.1582 C.3     1  UNL1        0.0754
     28 C         141.6697  136.2470  156.3624 C.ar    1  UNL1        0.0862
     29 C         141.8310  134.7826  156.0807 C.ar    1  UNL1        0.1161
     30 N         142.7153  134.2007  157.1434 N.ar    1  UNL1       -0.2181
     31 C         143.1004  135.3055  158.0820 C.ar    1  UNL1        0.1966
     32 S         143.7269  136.0333  159.2343 S.2     1  UNL1       -0.0278
     33 C         143.4167  138.4781  159.6462 C.ar    1  UNL1        0.1350
     34 N         143.0584  137.3417  158.7350 N.ar    1  UNL1       -0.1569
     35 N         142.4542  136.5702  157.5993 N.ar    1  UNL1       -0.2085
     36 H         142.3581  144.6062  160.2764 H       1  UNL1        0.1739
     37 H         137.5056  142.6071  152.6257 H       1  UNL1        0.1501
     38 C         142.8357  144.6512  163.2622 C.3     1  UNL1        0.2543
     39 O         143.6985  144.2963  162.0877 O.3     1  UNL1       -0.4553
@<TRIPOS>BOND
     1    38    39    1
     2    39     1    1
     3     1     2   ar
     4     2     3   ar
     5     3     4   ar
     6     4     5   ar
     7     5     6   ar
     8     6     7    1
     9     7     8    1
    10     8     9    2
    11     8    10    2
    12     8    11    1
    13    11    12   ar
    14    12    13   ar
    15    13    14   ar
    16    14    15   ar
    17    15    16   ar
    18    15    17    1
    19    17    18    2
    20    17    19   am
    21    19    20    1
    22    20    21    1
    23    21    22   ar
    24    22    23   ar
    25    23    24   ar
    26    24    25   ar
    27    25    26   ar
    28    25    27    1
    29    27    28    1
    30    28    29   ar
    31    29    30   ar
    32    30    31   ar
    33    31    32   ar
    34    32    33   ar
    35    33    34   ar
    36    34    35   ar
    37     6     1   ar
    38    16    11   ar
    39    26    21   ar
    40    35    28   ar
    41    33     4    1
    42    35    31   ar
    43     7    36    1
    44    19    37    1
@<TRIPOS>MOLECULE
*****
 39 44 0 0 0
SMALL
GASTEIGER

@<TRIPOS>ATOM
      1 C         141.2412  135.5884  154.4535 C.ar    1  UNL1        0.2400
      2 N         142.0350  134.6922  155.3572 N.ar    1  UNL1       -0.2090
      3 C         142.5140  135.2001  156.6850 C.ar    1  UNL1        0.1042
      4 C         142.3758  136.5501  157.4189 C.ar    1  UNL1        0.0463
      5 C         141.7029  136.5402  156.0784 C.ar    1  UNL1        0.0242
      6 C         140.9262  136.9923  154.8774 C.ar    1  UNL1        0.1179
      7 N         140.1301  137.8577  153.9461 N.pl3   1  UNL1       -0.2104
      8 S         139.4007  139.0425  153.3854 S.O2    1  UNL1        0.0737
      9 O         139.3940  137.8468  152.4798 O.2     1  UNL1       -0.1499
     10 O         138.6659  139.2666  152.0971 O.2     1  UNL1       -0.1499
     11 C         138.7562  140.7505  153.3834 C.ar    1  UNL1        0.1253
     12 C         137.9979  141.0899  152.1345 C.ar    1  UNL1        0.0202
     13 C         137.3995  142.4552  151.9681 C.ar    1  UNL1        0.0015
     14 C         137.5594  143.4812  153.0506 C.ar    1  UNL1        0.0046
     15 C         138.3177  143.1419  154.2995 C.ar    1  UNL1        0.0547
     16 C         138.9161  141.7766  154.4659 C.ar    1  UNL1        0.0247
     17 C         138.4559  144.1946  155.3590 C.2     1  UNL1        0.2461
     18 O         137.7020  145.3104  154.6983 O.2     1  UNL1       -0.2701
     19 N         138.8424  144.8800  156.6360 N.am    1  UNL1       -0.2969
     20 C         139.4351  145.1239  157.9922 C.3     1  UNL1        0.1181
     21 C         140.1700  144.8997  159.2806 C.ar    1  UNL1        0.0163
     22 C         140.4343  145.8195  160.4907 C.ar    1  UNL1        0.0962
     23 N         141.1602  145.6341  161.7902 N.ar    1  UNL1       -0.2429
     24 C         141.8133  144.3206  162.1037 C.ar    1  UNL1        0.0949
     25 C         141.7405  143.1926  161.1177 C.ar    1  UNL1        0.0027
     26 C         140.9672  144.2318  160.3615 C.ar    1  UNL1       -0.0034
     27 C         142.4061  141.8947  161.4675 C.3     1  UNL1        0.0754
     28 C         142.8918  140.4786  161.3728 C.ar    1  UNL1        0.0862
     29 C         143.5348  140.5825  162.7240 C.ar    1  UNL1        0.1161
     30 N         144.1853  139.2660  163.0302 N.ar    1  UNL1       -0.2181
     31 C         143.9444  138.3486  161.8683 C.ar    1  UNL1        0.1966
     32 S         143.9653  137.1270  160.9980 S.2     1  UNL1       -0.0278
     33 C         142.8722  137.0212  158.7537 C.ar    1  UNL1        0.1350
     34 N         143.1382  137.9022  159.9382 N.ar    1  UNL1       -0.1569
     35 N         143.1450  139.0979  160.8439 N.ar    1  UNL1       -0.2085
     36 H         139.9970  137.2209  153.2072 H       1  UNL1        0.1739
     37 H         138.4310  145.7605  156.4782 H       1  UNL1        0.1501
     38 C         141.7150  134.9855  151.9712 C.3     1  UNL1        0.2543
     39 O         140.7623  135.0805  153.1258 O.3     1  UNL1       -0.4553
@<TRIPOS>BOND
     1    38    39    1
     2    39     1    1
     3     1     2   ar
     4     2     3   ar
     5     3     4   ar
     6     4     5   ar
     7     5     6   ar
     8     6     7    1
     9     7     8    1
    10     8     9    2
    11     8    10    2
    12     8    11    1
    13    11    12   ar
    14    12    13   ar
    15    13    14   ar
    16    14    15   ar
    17    15    16   ar
    18    15    17    1
    19    17    18    2
    20    17    19   am
    21    19    20    1
    22    20    21    1
    23    21    22   ar
    24    22    23   ar
    25    23    24   ar
    26    24    25   ar
    27    25    26   ar
    28    25    27    1
    29    27    28    1
    30    28    29   ar
    31    29    30   ar
    32    30    31   ar
    33    31    32   ar
    34    32    33   ar
    35    33    34   ar
    36    34    35   ar
    37     6     1   ar
    38    16    11   ar
    39    26    21   ar
    40    35    28   ar
    41    33     4    1
    42    35    31   ar
    43     7    36    1
    44    19    37    1
@<TRIPOS>MOLECULE
*****
 39 44 0 0 0
SMALL
GASTEIGER

@<TRIPOS>ATOM
      1 C         139.8142  145.4634  162.2299 C.ar    1  UNL1        0.2400
      2 N         139.4638  146.7644  161.5706 N.ar    1  UNL1       -0.2090
      3 C         139.6051  146.9142  160.0847 C.ar    1  UNL1        0.1042
      4 C         140.0678  145.9646  158.9603 C.ar    1  UNL1        0.0463
      5 C         140.1060  145.3279  160.3179 C.ar    1  UNL1        0.0242
      6 C         140.3060  144.3123  161.4035 C.ar    1  UNL1        0.1179
      7 N         140.6462  143.0278  162.0994 N.pl3   1  UNL1       -0.2104
      8 S         141.0898  141.6136  162.3302 S.O2    1  UNL1        0.0737
      9 O         140.6879  142.3314  163.5845 O.2     1  UNL1       -0.1499
     10 O         141.2105  140.7761  163.5687 O.2     1  UNL1       -0.1499
     11 C         141.7042  139.9635  161.8481 C.ar    1  UNL1        0.1253
     12 C         141.8651  139.0337  163.0141 C.ar    1  UNL1        0.0202
     13 C         142.3614  137.6353  162.7953 C.ar    1  UNL1        0.0015
     14 C         142.6967  137.1665  161.4104 C.ar    1  UNL1        0.0046
     15 C         142.5358  138.0962  160.2444 C.ar    1  UNL1        0.0547
     16 C         142.0395  139.4947  160.4632 C.ar    1  UNL1        0.0247
     17 C         142.8814  137.5906  158.8751 C.2     1  UNL1        0.2461
     18 O         143.3033  136.1947  159.2266 O.2     1  UNL1       -0.2701
     19 N         143.0882  137.5445  157.3902 N.am    1  UNL1       -0.2969
     20 C         143.1337  137.9629  155.9504 C.3     1  UNL1        0.1181
     21 C         143.0130  138.8005  154.7119 C.ar    1  UNL1        0.0163
     22 C         143.3062  138.4958  153.2281 C.ar    1  UNL1        0.0962
     23 N         143.1990  139.3013  151.9673 N.ar    1  UNL1       -0.2429
     24 C         142.7169  140.7207  152.0228 C.ar    1  UNL1        0.0949
     25 C         142.3418  141.3344  153.3391 C.ar    1  UNL1        0.0027
     26 C         142.7391  139.9664  153.8088 C.ar    1  UNL1       -0.0034
     27 C         141.8641  142.7562  153.3535 C.3     1  UNL1        0.0754
     28 C         141.3577  144.0778  153.8506 C.ar    1  UNL1        0.0862
     29 C         141.3530  144.6289  152.4556 C.ar    1  UNL1        0.1161
     30 N         140.8700  146.0476  152.5192 N.ar    1  UNL1       -0.2181
     31 C         140.5762  146.3732  153.9536 C.ar    1  UNL1        0.1966
     32 S         140.1639  147.1331  155.1795 S.2     1  UNL1       -0.0278
     33 C         140.1957  146.1533  157.4777 C.ar    1  UNL1        0.1350
     34 N         140.4757  145.8737  156.0308 N.ar    1  UNL1       -0.1569
     35 N         140.8776  145.1559  154.7765 N.ar    1  UNL1       -0.2085
     36 H         140.4402  143.2864  163.0267 H       1  UNL1        0.1739
     37 H         143.4098  136.6183  157.3001 H       1  UNL1        0.1501
     38 C         138.4259  144.7130  164.2937 C.3     1  UNL1        0.2543
     39 O         139.6729  145.3138  163.7157 O.3     1  UNL1       -0.4553
@<TRIPOS>BOND
     1    38    39    1
     2    39     1    1
     3     1     2   ar
     4     2     3   ar
     5     3     4   ar
     6     4     5   ar
     7     5     6   ar
     8     6     7    1
     9     7     8    1
    10     8     9    2
    11     8    10    2
    12     8    11    1
    13    11    12   ar
    14    12    13   ar
    15    13    14   ar
    16    14    15   ar
    17    15    16   ar
    18    15    17    1
    19    17    18    2
    20    17    19   am
    21    19    20    1
    22    20    21    1
    23    21    22   ar
    24    22    23   ar
    25    23    24   ar
    26    24    25   ar
    27    25    26   ar
    28    25    27    1
    29    27    28    1
    30    28    29   ar
    31    29    30   ar
    32    30    31   ar
    33    31    32   ar
    34    32    33   ar
    35    33    34   ar
    36    34    35   ar
    37     6     1   ar
    38    16    11   ar
    39    26    21   ar
    40    35    28   ar
    41    33     4    1
    42    35    31   ar
    43     7    36    1
    44    19    37    1
