@<TRIPOS>MOLECULE
*****
 28 32 0 0 0
SMALL
GASTEIGER

@<TRIPOS>ATOM
      1 N         139.4638  142.7918  161.5221 N.pl3   1  UNL1       -0.2917
      2 C         138.1024  142.6839  162.1427 C.3     1  UNL1        0.0939
      3 C         137.9211  141.9298  163.4266 C.3     1  UNL1        0.0412
      4 C         139.1011  141.2836  164.0900 C.3     1  UNL1        0.0762
      5 C         140.4624  141.3915  163.4694 C.3     1  UNL1        0.0412
      6 C         140.6437  142.1456  162.1854 C.3     1  UNL1        0.0939
      7 N         138.9198  140.5294  165.3739 N.pl3   1  UNL1       -0.3088
      8 C         138.1121  139.2785  165.5551 C.3     1  UNL1        0.0954
      9 C         138.2075  138.8699  166.9952 C.3     1  UNL1        0.0490
     10 C         139.0740  139.8682  167.7040 C.ar    1  UNL1       -0.0070
     11 C         139.5191  139.9758  169.1324 C.ar    1  UNL1       -0.0007
     12 C         140.4044  141.1092  169.5587 C.ar    1  UNL1        0.0294
     13 C         140.8446  142.1349  168.5566 C.ar    1  UNL1        0.1414
     14 F         141.7300  143.2682  168.9830 F       1  UNL1       -0.2041
     15 C         140.3996  142.0272  167.1282 C.ar    1  UNL1        0.0438
     16 C         139.5143  140.8939  166.7019 C.ar    1  UNL1        0.0461
     17 C         140.0078  145.0540  157.6703 C.ar    1  UNL1        0.1705
     18 C         139.8263  143.5652  157.6465 C.ar    1  UNL1        0.0421
     19 C         139.6450  142.8112  158.9305 C.ar    1  UNL1        0.0393
     20 C         139.6451  143.5459  160.2382 C.ar    1  UNL1        0.1536
     21 N         139.8266  145.0347  160.2620 N.ar    1  UNL1       -0.1315
     22 N         140.0080  145.7888  158.9780 N.ar    1  UNL1       -0.1286
     23 C         139.6552  148.7712  153.9369 C.3     1  UNL1        0.0538
     24 C         140.0271  147.5168  154.6704 C.ar    1  UNL1        0.0786
     25 C         139.5820  147.1383  156.0519 C.ar    1  UNL1        0.0976
     26 N         140.1892  145.8081  156.3864 N.ar    1  UNL1       -0.2702
     27 C         141.0096  145.3644  155.2116 C.ar    1  UNL1        0.1837
     28 N         140.9094  146.4205  154.1510 N.ar    1  UNL1       -0.2280
@<TRIPOS>BOND
     1    23    24    1
     2    24    25   ar
     3    25    26   ar
     4    26    17    1
     5    17    18   ar
     6    18    19   ar
     7    19    20   ar
     8    20     1    1
     9     1     2    1
    10     2     3    1
    11     3     4    1
    12     4     7    1
    13     7     8    1
    14     8     9    1
    15     9    10    1
    16    10    11   ar
    17    11    12   ar
    18    12    13   ar
    19    13    14    1
    20    13    15   ar
    21    15    16   ar
    22     4     5    1
    23     5     6    1
    24    20    21   ar
    25    21    22   ar
    26    26    27   ar
    27    27    28   ar
    28    28    24   ar
    29    22    17   ar
    30     6     1    1
    31    16     7    1
    32    16    10   ar
@<TRIPOS>MOLECULE
*****
 28 32 0 0 0
SMALL
GASTEIGER

@<TRIPOS>ATOM
      1 N         141.3263  142.7993  162.7824 N.pl3   1  UNL1       -0.2917
      2 C         140.5088  141.6082  163.1860 C.3     1  UNL1        0.0939
      3 C         140.7196  140.9740  164.5289 C.3     1  UNL1        0.0412
      4 C         141.7480  141.5310  165.4683 C.3     1  UNL1        0.0762
      5 C         142.5655  142.7221  165.0646 C.3     1  UNL1        0.0412
      6 C         142.3546  143.3562  163.7217 C.3     1  UNL1        0.0939
      7 N         141.9588  140.8969  166.8112 N.pl3   1  UNL1       -0.3088
      8 C         142.5955  139.5628  167.0661 C.3     1  UNL1        0.0954
      9 C         142.6001  139.3270  168.5474 C.3     1  UNL1        0.0490
     10 C         141.9663  140.5152  169.2080 C.ar    1  UNL1       -0.0070
     11 C         141.6989  140.8390  170.6480 C.ar    1  UNL1       -0.0007
     12 C         141.0351  142.1331  171.0149 C.ar    1  UNL1        0.0294
     13 C         140.6388  143.1034  169.9418 C.ar    1  UNL1        0.1414
     14 F         139.9749  144.3975  170.3088 F       1  UNL1       -0.2041
     15 C         140.9062  142.7796  168.5019 C.ar    1  UNL1        0.0438
     16 C         141.5700  141.4855  168.1350 C.ar    1  UNL1        0.0461
     17 C         140.6938  144.7016  158.7537 C.ar    1  UNL1        0.1705
     18 C         139.7483  143.6437  159.2403 C.ar    1  UNL1        0.0421
     19 C         139.9592  143.0096  160.5833 C.ar    1  UNL1        0.0393
     20 C         141.1155  143.4334  161.4395 C.ar    1  UNL1        0.1536
     21 N         142.0610  144.4913  160.9529 N.ar    1  UNL1       -0.1315
     22 N         141.8501  145.1254  159.6099 N.ar    1  UNL1       -0.1286
     23 C         139.2029  148.0666  154.9676 C.3     1  UNL1        0.0538
     24 C         139.7977  146.8825  155.6705 C.ar    1  UNL1        0.0786
     25 C         139.7751  146.6322  157.1493 C.ar    1  UNL1        0.0976
     26 N         140.4830  145.3358  157.4108 N.ar    1  UNL1       -0.2702
     27 C         140.9430  144.7849  156.0936 C.ar    1  UNL1        0.1837
     28 N         140.5194  145.7409  155.0180 N.ar    1  UNL1       -0.2280
@<TRIPOS>BOND
     1    23    24    1
     2    24    25   ar
     3    25    26   ar
     4    26    17    1
     5    17    18   ar
     6    18    19   ar
     7    19    20   ar
     8    20     1    1
     9     1     2    1
    10     2     3    1
    11     3     4    1
    12     4     7    1
    13     7     8    1
    14     8     9    1
    15     9    10    1
    16    10    11   ar
    17    11    12   ar
    18    12    13   ar
    19    13    14    1
    20    13    15   ar
    21    15    16   ar
    22     4     5    1
    23     5     6    1
    24    20    21   ar
    25    21    22   ar
    26    26    27   ar
    27    27    28   ar
    28    28    24   ar
    29    22    17   ar
    30     6     1    1
    31    16     7    1
    32    16    10   ar
@<TRIPOS>MOLECULE
*****
 28 32 0 0 0
SMALL
GASTEIGER

@<TRIPOS>ATOM
      1 N         141.1749  143.3005  163.3301 N.pl3   1  UNL1       -0.2917
      2 C         140.1766  143.5211  164.4276 C.3     1  UNL1        0.0939
      3 C         140.5151  143.1375  165.8377 C.3     1  UNL1        0.0412
      4 C         141.8521  142.5331  166.1502 C.3     1  UNL1        0.0762
      5 C         142.8503  142.3125  165.0526 C.3     1  UNL1        0.0412
      6 C         142.5117  142.6961  163.6425 C.3     1  UNL1        0.0939
      7 N         142.1906  142.1495  167.5602 N.pl3   1  UNL1       -0.3088
      8 C         143.4883  142.4231  168.2610 C.3     1  UNL1        0.0954
      9 C         143.3905  141.8676  169.6509 C.3     1  UNL1        0.0490
     10 C         142.0325  141.2506  169.8091 C.ar    1  UNL1       -0.0070
     11 C         141.3753  140.5526  170.9628 C.ar    1  UNL1       -0.0007
     12 C         139.9766  140.0289  170.8243 C.ar    1  UNL1        0.0294
     13 C         139.2350  140.2031  169.5321 C.ar    1  UNL1        0.1414
     14 F         137.8362  139.6794  169.3937 F       1  UNL1       -0.2041
     15 C         139.8921  140.9011  168.3785 C.ar    1  UNL1        0.0438
     16 C         141.2909  141.4248  168.5169 C.ar    1  UNL1        0.0461
     17 C         140.1594  144.4515  159.1000 C.ar    1  UNL1        0.1705
     18 C         141.4328  144.9393  159.7249 C.ar    1  UNL1        0.0421
     19 C         141.7712  144.5556  161.1349 C.ar    1  UNL1        0.0393
     20 C         140.8364  143.6841  161.9200 C.ar    1  UNL1        0.1536
     21 N         139.5630  143.1962  161.2952 N.ar    1  UNL1       -0.1315
     22 N         139.2245  143.5800  159.8851 N.ar    1  UNL1       -0.1286
     23 C         139.7073  147.1999  154.6142 C.3     1  UNL1        0.0538
     24 C         139.6131  146.0984  155.6281 C.ar    1  UNL1        0.0786
     25 C         140.1286  146.1494  157.0358 C.ar    1  UNL1        0.0976
     26 N         139.8209  144.8351  157.6899 N.ar    1  UNL1       -0.2702
     27 C         139.1152  143.9718  156.6866 C.ar    1  UNL1        0.1837
     28 N         138.9868  144.7526  155.4122 N.ar    1  UNL1       -0.2280
@<TRIPOS>BOND
     1    23    24    1
     2    24    25   ar
     3    25    26   ar
     4    26    17    1
     5    17    18   ar
     6    18    19   ar
     7    19    20   ar
     8    20     1    1
     9     1     2    1
    10     2     3    1
    11     3     4    1
    12     4     7    1
    13     7     8    1
    14     8     9    1
    15     9    10    1
    16    10    11   ar
    17    11    12   ar
    18    12    13   ar
    19    13    14    1
    20    13    15   ar
    21    15    16   ar
    22     4     5    1
    23     5     6    1
    24    20    21   ar
    25    21    22   ar
    26    26    27   ar
    27    27    28   ar
    28    28    24   ar
    29    22    17   ar
    30     6     1    1
    31    16     7    1
    32    16    10   ar
@<TRIPOS>MOLECULE
*****
 28 32 0 0 0
SMALL
GASTEIGER

@<TRIPOS>ATOM
      1 N         141.5770  142.8078  161.5675 N.pl3   1  UNL1       -0.2917
      2 C         142.5865  143.2900  162.5666 C.3     1  UNL1        0.0939
      3 C         142.9018  142.4592  163.7750 C.3     1  UNL1        0.0412
      4 C         142.2075  141.1460  163.9843 C.3     1  UNL1        0.0762
      5 C         141.1980  140.6639  162.9852 C.3     1  UNL1        0.0412
      6 C         140.8827  141.4948  161.7768 C.3     1  UNL1        0.0939
      7 N         142.5227  140.3152  165.1928 N.pl3   1  UNL1       -0.3088
      8 C         143.3536  139.0664  165.2119 C.3     1  UNL1        0.0954
      9 C         143.4068  138.5668  166.6252 C.3     1  UNL1        0.0490
     10 C         142.6089  139.5066  167.4795 C.ar    1  UNL1       -0.0070
     11 C         142.3093  139.5181  168.9492 C.ar    1  UNL1       -0.0007
     12 C         141.4633  140.6102  169.5337 C.ar    1  UNL1        0.0294
     13 C         140.9169  141.6908  168.6484 C.ar    1  UNL1        0.1414
     14 F         140.0709  142.7829  169.2329 F       1  UNL1       -0.2041
     15 C         141.2165  141.6793  167.1787 C.ar    1  UNL1        0.0438
     16 C         142.0625  140.5873  166.5943 C.ar    1  UNL1        0.0461
     17 C         140.6310  145.3003  157.9422 C.ar    1  UNL1        0.1705
     18 C         139.7479  144.1446  158.3090 C.ar    1  UNL1        0.0421
     19 C         140.0633  143.3138  159.5175 C.ar    1  UNL1        0.0393
     20 C         141.2617  143.6387  160.3590 C.ar    1  UNL1        0.1536
     21 N         142.1448  144.7943  159.9922 N.ar    1  UNL1       -0.1315
     22 N         141.8295  145.6251  158.7837 N.ar    1  UNL1       -0.1286
     23 C         140.8305  147.4045  153.1035 C.3     1  UNL1        0.0538
     24 C         140.4075  147.0983  154.5097 C.ar    1  UNL1        0.0786
     25 C         141.0638  146.1157  155.4337 C.ar    1  UNL1        0.0976
     26 N         140.3158  146.1311  156.7338 N.ar    1  UNL1       -0.2702
     27 C         139.1971  147.1231  156.6133 C.ar    1  UNL1        0.1837
     28 N         139.2538  147.7210  155.2386 N.ar    1  UNL1       -0.2280
@<TRIPOS>BOND
     1    23    24    1
     2    24    25   ar
     3    25    26   ar
     4    26    17    1
     5    17    18   ar
     6    18    19   ar
     7    19    20   ar
     8    20     1    1
     9     1     2    1
    10     2     3    1
    11     3     4    1
    12     4     7    1
    13     7     8    1
    14     8     9    1
    15     9    10    1
    16    10    11   ar
    17    11    12   ar
    18    12    13   ar
    19    13    14    1
    20    13    15   ar
    21    15    16   ar
    22     4     5    1
    23     5     6    1
    24    20    21   ar
    25    21    22   ar
    26    26    27   ar
    27    27    28   ar
    28    28    24   ar
    29    22    17   ar
    30     6     1    1
    31    16     7    1
    32    16    10   ar
@<TRIPOS>MOLECULE
*****
 28 32 0 0 0
SMALL
GASTEIGER

@<TRIPOS>ATOM
      1 N         142.5426  140.5240  160.8888 N.pl3   1  UNL1       -0.2917
      2 C         142.0695  141.7062  161.6816 C.3     1  UNL1        0.0939
      3 C         141.2290  141.4998  162.9068 C.3     1  UNL1        0.0412
      4 C         140.8616  140.1111  163.3391 C.3     1  UNL1        0.0762
      5 C         141.3347  138.9290  162.5462 C.3     1  UNL1        0.0412
      6 C         142.1752  139.1354  161.3211 C.3     1  UNL1        0.0939
      7 N         140.0210  139.9047  164.5642 N.pl3   1  UNL1       -0.3088
      8 C         138.6027  139.4173  164.5885 C.3     1  UNL1        0.0954
      9 C         138.1564  139.3608  166.0194 C.3     1  UNL1        0.0490
     10 C         139.2990  139.8134  166.8795 C.ar    1  UNL1       -0.0070
     11 C         139.4388  139.9629  168.3655 C.ar    1  UNL1       -0.0007
     12 C         140.7312  140.4485  168.9520 C.ar    1  UNL1        0.0294
     13 C         141.8836  140.7847  168.0526 C.ar    1  UNL1        0.1414
     14 F         143.1760  141.2703  168.6392 F       1  UNL1       -0.2041
     15 C         141.7437  140.6352  166.5667 C.ar    1  UNL1        0.0438
     16 C         140.4514  140.1496  165.9801 C.ar    1  UNL1        0.0461
     17 C         145.0642  141.1433  157.2135 C.ar    1  UNL1        0.1705
     18 C         144.7912  142.2924  158.1381 C.ar    1  UNL1        0.0421
     19 C         143.9507  142.0859  159.3632 C.ar    1  UNL1        0.0393
     20 C         143.3831  140.7304  159.6636 C.ar    1  UNL1        0.1536
     21 N         143.6560  139.5812  158.7390 N.ar    1  UNL1       -0.1315
     22 N         144.4966  139.7877  157.5139 N.ar    1  UNL1       -0.1286
     23 C         149.0293  142.5477  154.0220 C.3     1  UNL1        0.0538
     24 C         147.7273  141.9952  154.5214 C.ar    1  UNL1        0.0786
     25 C         147.2549  142.0016  155.9451 C.ar    1  UNL1        0.0976
     26 N         145.9047  141.3497  155.9883 N.ar    1  UNL1       -0.2702
     27 C         145.5425  140.9403  154.5914 C.ar    1  UNL1        0.1837
     28 N         146.6690  141.3393  153.6847 N.ar    1  UNL1       -0.2280
@<TRIPOS>BOND
     1    23    24    1
     2    24    25   ar
     3    25    26   ar
     4    26    17    1
     5    17    18   ar
     6    18    19   ar
     7    19    20   ar
     8    20     1    1
     9     1     2    1
    10     2     3    1
    11     3     4    1
    12     4     7    1
    13     7     8    1
    14     8     9    1
    15     9    10    1
    16    10    11   ar
    17    11    12   ar
    18    12    13   ar
    19    13    14    1
    20    13    15   ar
    21    15    16   ar
    22     4     5    1
    23     5     6    1
    24    20    21   ar
    25    21    22   ar
    26    26    27   ar
    27    27    28   ar
    28    28    24   ar
    29    22    17   ar
    30     6     1    1
    31    16     7    1
    32    16    10   ar
@<TRIPOS>MOLECULE
*****
 28 32 0 0 0
SMALL
GASTEIGER

@<TRIPOS>ATOM
      1 N         140.2498  142.9787  162.7136 N.pl3   1  UNL1       -0.2917
      2 C         139.9809  143.8231  163.9239 C.3     1  UNL1        0.0939
      3 C         139.9506  143.1944  165.2854 C.3     1  UNL1        0.0412
      4 C         140.1893  141.7212  165.4367 C.3     1  UNL1        0.0762
      5 C         140.4582  140.8768  164.2265 C.3     1  UNL1        0.0412
      6 C         140.4884  141.5056  162.8650 C.3     1  UNL1        0.0939
      7 N         140.1591  141.0924  166.7983 N.pl3   1  UNL1       -0.3088
      8 C         139.0956  140.1731  167.3215 C.3     1  UNL1        0.0954
      9 C         139.4664  139.7852  168.7222 C.3     1  UNL1        0.0490
     10 C         140.7590  140.4648  169.0647 C.ar    1  UNL1       -0.0070
     11 C         141.6014  140.4524  170.3057 C.ar    1  UNL1       -0.0007
     12 C         142.8720  141.2478  170.3576 C.ar    1  UNL1        0.0294
     13 C         143.3002  142.0558  169.1685 C.ar    1  UNL1        0.1414
     14 F         144.5709  142.8513  169.2205 F       1  UNL1       -0.2041
     15 C         142.4577  142.0682  167.9275 C.ar    1  UNL1        0.0438
     16 C         141.1871  141.2728  167.8756 C.ar    1  UNL1        0.0461
     17 C         140.3405  144.8649  158.6291 C.ar    1  UNL1        0.1705
     18 C         141.3810  145.2286  159.6464 C.ar    1  UNL1        0.0421
     19 C         141.3507  144.5999  161.0080 C.ar    1  UNL1        0.0393
     20 C         140.2800  143.6074  161.3521 C.ar    1  UNL1        0.1536
     21 N         139.2395  143.2436  160.3347 N.ar    1  UNL1       -0.1315
     22 N         139.2698  143.8724  158.9732 N.ar    1  UNL1       -0.1286
     23 C         139.4560  148.1584  154.5979 C.3     1  UNL1        0.0538
     24 C         139.9641  147.0075  155.4146 C.ar    1  UNL1        0.0786
     25 C         139.6554  146.7472  156.8592 C.ar    1  UNL1        0.0976
     26 N         140.3707  145.4936  157.2675 N.ar    1  UNL1       -0.2702
     27 C         141.1216  144.9790  156.0753 C.ar    1  UNL1        0.1837
     28 N         140.8703  145.9147  154.9300 N.ar    1  UNL1       -0.2280
@<TRIPOS>BOND
     1    23    24    1
     2    24    25   ar
     3    25    26   ar
     4    26    17    1
     5    17    18   ar
     6    18    19   ar
     7    19    20   ar
     8    20     1    1
     9     1     2    1
    10     2     3    1
    11     3     4    1
    12     4     7    1
    13     7     8    1
    14     8     9    1
    15     9    10    1
    16    10    11   ar
    17    11    12   ar
    18    12    13   ar
    19    13    14    1
    20    13    15   ar
    21    15    16   ar
    22     4     5    1
    23     5     6    1
    24    20    21   ar
    25    21    22   ar
    26    26    27   ar
    27    27    28   ar
    28    28    24   ar
    29    22    17   ar
    30     6     1    1
    31    16     7    1
    32    16    10   ar
@<TRIPOS>MOLECULE
*****
 28 32 0 0 0
SMALL
GASTEIGER

@<TRIPOS>ATOM
      1 N         142.6779  140.7399  162.4889 N.pl3   1  UNL1       -0.2917
      2 C         143.2091  139.7434  163.4763 C.3     1  UNL1        0.0939
      3 C         142.6033  139.6480  164.8452 C.3     1  UNL1        0.0412
      4 C         141.4664  140.5491  165.2268 C.3     1  UNL1        0.0762
      5 C         140.9353  141.5455  164.2394 C.3     1  UNL1        0.0412
      6 C         141.5411  141.6409  162.8705 C.3     1  UNL1        0.0939
      7 N         140.8606  140.4537  166.5957 N.pl3   1  UNL1       -0.3088
      8 C         139.5134  139.8827  166.9259 C.3     1  UNL1        0.0954
      9 C         139.3159  139.9886  168.4090 C.3     1  UNL1        0.0490
     10 C         140.5411  140.6251  168.9955 C.ar    1  UNL1       -0.0070
     11 C         140.9107  140.9801  170.4052 C.ar    1  UNL1       -0.0007
     12 C         142.2349  141.6225  170.6942 C.ar    1  UNL1        0.0294
     13 C         143.1896  141.9099  169.5735 C.ar    1  UNL1        0.1414
     14 F         144.5139  142.5524  169.8626 F       1  UNL1       -0.2041
     15 C         142.8200  141.5549  168.1638 C.ar    1  UNL1        0.0438
     16 C         141.4957  140.9125  167.8748 C.ar    1  UNL1        0.0461
     17 C         144.4952  141.0263  158.3822 C.ar    1  UNL1        0.1705
     18 C         144.3499  142.2582  159.2256 C.ar    1  UNL1        0.0421
     19 C         143.7441  142.1626  160.5945 C.ar    1  UNL1        0.0393
     20 C         143.2837  140.8353  161.1200 C.ar    1  UNL1        0.1536
     21 N         143.4290  139.6034  160.2766 N.ar    1  UNL1       -0.1315
     22 N         144.0348  139.6989  158.9077 N.ar    1  UNL1       -0.1286
     23 C         147.5578  142.4874  154.3367 C.3     1  UNL1        0.0538
     24 C         146.5087  141.7933  155.1538 C.ar    1  UNL1        0.0786
     25 C         146.2265  142.0268  156.6084 C.ar    1  UNL1        0.0976
     26 N         145.1010  141.1217  157.0133 N.ar    1  UNL1       -0.2702
     27 C         144.6876  140.3288  155.8090 C.ar    1  UNL1        0.1837
     28 N         145.5576  140.7438  154.6597 N.ar    1  UNL1       -0.2280
@<TRIPOS>BOND
     1    23    24    1
     2    24    25   ar
     3    25    26   ar
     4    26    17    1
     5    17    18   ar
     6    18    19   ar
     7    19    20   ar
     8    20     1    1
     9     1     2    1
    10     2     3    1
    11     3     4    1
    12     4     7    1
    13     7     8    1
    14     8     9    1
    15     9    10    1
    16    10    11   ar
    17    11    12   ar
    18    12    13   ar
    19    13    14    1
    20    13    15   ar
    21    15    16   ar
    22     4     5    1
    23     5     6    1
    24    20    21   ar
    25    21    22   ar
    26    26    27   ar
    27    27    28   ar
    28    28    24   ar
    29    22    17   ar
    30     6     1    1
    31    16     7    1
    32    16    10   ar
@<TRIPOS>MOLECULE
*****
 28 32 0 0 0
SMALL
GASTEIGER

@<TRIPOS>ATOM
      1 N         141.1335  139.1499  163.2056 N.pl3   1  UNL1       -0.2917
      2 C         142.0031  138.6317  164.3126 C.3     1  UNL1        0.0939
      3 C         141.6755  138.9587  165.7394 C.3     1  UNL1        0.0412
      4 C         140.4782  139.8041  166.0592 C.3     1  UNL1        0.0762
      5 C         139.6087  140.3222  164.9522 C.3     1  UNL1        0.0412
      6 C         139.9364  139.9951  163.5255 C.3     1  UNL1        0.0939
      7 N         140.1506  140.1311  167.4860 N.pl3   1  UNL1       -0.3088
      8 C         138.8767  139.7871  168.1992 C.3     1  UNL1        0.0954
      9 C         138.9782  140.3030  169.6041 C.3     1  UNL1        0.0490
     10 C         140.3148  140.9658  169.7590 C.ar    1  UNL1       -0.0070
     11 C         140.9657  141.6524  170.9230 C.ar    1  UNL1       -0.0007
     12 C         142.3413  142.2327  170.7779 C.ar    1  UNL1        0.0294
     13 C         143.0659  142.1265  169.4688 C.ar    1  UNL1        0.1414
     14 F         144.4415  142.7069  169.3238 F       1  UNL1       -0.2041
     15 C         142.4150  141.4399  168.3049 C.ar    1  UNL1        0.0438
     16 C         141.0394  140.8596  168.4500 C.ar    1  UNL1        0.0461
     17 C         142.1165  138.1686  158.9254 C.ar    1  UNL1        0.1705
     18 C         143.0011  137.6729  160.0306 C.ar    1  UNL1        0.0421
     19 C         142.6734  138.0000  161.4574 C.ar    1  UNL1        0.0393
     20 C         141.4611  138.8228  161.7788 C.ar    1  UNL1        0.1536
     21 N         140.5765  139.3186  160.6736 N.ar    1  UNL1       -0.1315
     22 N         140.9042  138.9915  159.2468 N.ar    1  UNL1       -0.1286
     23 C         142.4429  135.6432  154.2998 C.3     1  UNL1        0.0538
     24 C         142.5941  136.6807  155.3724 C.ar    1  UNL1        0.0786
     25 C         142.0637  136.5855  156.7723 C.ar    1  UNL1        0.0976
     26 N         142.4441  137.8416  157.4986 N.ar    1  UNL1       -0.2702
     27 C         143.2096  138.7132  156.5476 C.ar    1  UNL1        0.1837
     28 N         143.3023  137.9957  155.2335 N.ar    1  UNL1       -0.2280
@<TRIPOS>BOND
     1    23    24    1
     2    24    25   ar
     3    25    26   ar
     4    26    17    1
     5    17    18   ar
     6    18    19   ar
     7    19    20   ar
     8    20     1    1
     9     1     2    1
    10     2     3    1
    11     3     4    1
    12     4     7    1
    13     7     8    1
    14     8     9    1
    15     9    10    1
    16    10    11   ar
    17    11    12   ar
    18    12    13   ar
    19    13    14    1
    20    13    15   ar
    21    15    16   ar
    22     4     5    1
    23     5     6    1
    24    20    21   ar
    25    21    22   ar
    26    26    27   ar
    27    27    28   ar
    28    28    24   ar
    29    22    17   ar
    30     6     1    1
    31    16     7    1
    32    16    10   ar
@<TRIPOS>MOLECULE
*****
 28 32 0 0 0
SMALL
GASTEIGER

@<TRIPOS>ATOM
      1 N         139.5951  143.5988  158.6075 N.pl3   1  UNL1       -0.2917
      2 C         139.0230  143.2569  157.2638 C.3     1  UNL1        0.0939
      3 C         139.2253  144.1863  156.1039 C.3     1  UNL1        0.0412
      4 C         139.9999  145.4577  156.2878 C.3     1  UNL1        0.0762
      5 C         140.5720  145.7996  157.6315 C.3     1  UNL1        0.0412
      6 C         140.3696  144.8702  158.7914 C.3     1  UNL1        0.0939
      7 N         140.2022  146.3871  155.1279 N.pl3   1  UNL1       -0.3088
      8 C         140.9098  146.0574  153.8470 C.3     1  UNL1        0.0954
      9 C         140.8774  147.2759  152.9728 C.3     1  UNL1        0.0490
     10 C         140.1498  148.3586  153.7134 C.ar    1  UNL1       -0.0070
     11 C         139.8133  149.7737  153.3470 C.ar    1  UNL1       -0.0007
     12 C         139.0596  150.6394  154.3126 C.ar    1  UNL1        0.0294
     13 C         138.6423  150.0900  155.6445 C.ar    1  UNL1        0.1414
     14 F         137.8885  150.9558  156.6101 F       1  UNL1       -0.2041
     15 C         138.9788  148.6750  156.0109 C.ar    1  UNL1        0.0438
     16 C         139.7325  147.8092  155.0454 C.ar    1  UNL1        0.0461
     17 C         138.9881  140.8107  162.0871 C.ar    1  UNL1        0.1705
     18 C         139.9499  140.4483  160.9946 C.ar    1  UNL1        0.0421
     19 C         140.1522  141.3777  159.8347 C.ar    1  UNL1        0.0393
     20 C         139.3927  142.6695  159.7674 C.ar    1  UNL1        0.1536
     21 N         138.4309  143.0319  160.8599 N.ar    1  UNL1       -0.1315
     22 N         138.2286  142.1024  162.0198 N.ar    1  UNL1       -0.1286
     23 C         137.8749  138.9626  166.9064 C.3     1  UNL1        0.0538
     24 C         138.2740  139.0319  165.4622 C.ar    1  UNL1        0.0786
     25 C         138.3427  140.2746  164.6250 C.ar    1  UNL1        0.0976
     26 N         138.7858  139.8813  163.2470 N.ar    1  UNL1       -0.2702
     27 C         138.9909  138.3955  163.2324 C.ar    1  UNL1        0.1837
     28 N         138.6747  137.8704  164.6016 N.ar    1  UNL1       -0.2280
@<TRIPOS>BOND
     1    23    24    1
     2    24    25   ar
     3    25    26   ar
     4    26    17    1
     5    17    18   ar
     6    18    19   ar
     7    19    20   ar
     8    20     1    1
     9     1     2    1
    10     2     3    1
    11     3     4    1
    12     4     7    1
    13     7     8    1
    14     8     9    1
    15     9    10    1
    16    10    11   ar
    17    11    12   ar
    18    12    13   ar
    19    13    14    1
    20    13    15   ar
    21    15    16   ar
    22     4     5    1
    23     5     6    1
    24    20    21   ar
    25    21    22   ar
    26    26    27   ar
    27    27    28   ar
    28    28    24   ar
    29    22    17   ar
    30     6     1    1
    31    16     7    1
    32    16    10   ar
