@<TRIPOS>MOLECULE
*****
 28 32 0 0 0
SMALL
GASTEIGER

@<TRIPOS>ATOM
      1 O         143.7250  139.3549  158.3463 O.2     1  UNL1       -0.2749
      2 C         142.3911  138.6877  158.5065 C.2     1  UNL1        0.2252
      3 N         141.6717  138.7554  159.8211 N.am    1  UNL1       -0.2767
      4 C         140.3379  138.0882  159.9813 C.3     1  UNL1        0.1107
      5 C         139.6185  138.1559  161.2958 C.3     1  UNL1        0.0939
      6 N         140.2330  138.8907  162.4501 N.3     1  UNL1       -0.2711
      7 C         141.5669  139.5579  162.2898 C.3     1  UNL1        0.0939
      8 C         142.2862  139.4902  160.9754 C.3     1  UNL1        0.1107
      9 C         141.7766  137.9529  157.3522 C.3     1  UNL1        0.0768
     10 C         140.7527  137.8750  156.2589 C.3     1  UNL1        0.0096
     11 C         141.7362  136.7580  156.4464 C.3     1  UNL1        0.0113
     12 C         142.8951  136.1581  157.1859 C.3     1  UNL1        0.0178
     13 C         143.4395  134.8234  156.7712 C.3     1  UNL1        0.0721
     14 N         142.8250  134.0885  155.6169 N.3     1  UNL1       -0.2740
     15 C         141.6661  134.6884  154.8774 C.3     1  UNL1        0.0721
     16 C         141.1217  136.0231  155.2921 C.3     1  UNL1        0.0178
     17 C         143.3695  132.7537  155.2022 C.3     1  UNL1        0.0575
     18 C         144.3366  132.0293  156.0909 C.3     1  UNL1        0.0160
     19 C         144.8811  130.6945  155.6761 C.3     1  UNL1        0.0014
     20 C         144.4583  130.0842  154.3727 C.3     1  UNL1        0.0001
     21 C         143.4911  130.8087  153.4840 C.3     1  UNL1        0.0014
     22 C         142.9467  132.1434  153.8988 C.3     1  UNL1        0.0160
     23 C         139.5136  138.9584  163.7646 C.3     1  UNL1        0.0576
     24 C         139.1636  140.2898  164.3603 C.3     1  UNL1        0.0160
     25 C         138.4442  140.3575  165.6748 C.3     1  UNL1        0.0014
     26 C         138.0749  139.0938  166.3936 C.3     1  UNL1        0.0001
     27 C         138.4250  137.7624  165.7979 C.3     1  UNL1        0.0014
     28 C         139.1444  137.6947  164.4834 C.3     1  UNL1        0.0160
@<TRIPOS>BOND
     1     1     2    2
     2     2     9    1
     3     9    10    1
     4    10    11    1
     5    11    12    1
     6    12    13    1
     7    13    14    1
     8    14    17    1
     9    17    18    1
    10    18    19    1
    11    19    20    1
    12    20    21    1
    13    21    22    1
    14    14    15    1
    15    15    16    1
    16     2     3   am
    17     3     4    1
    18     4     5    1
    19     5     6    1
    20     6    23    1
    21    23    24    1
    22    24    25    1
    23    25    26    1
    24    26    27    1
    25    27    28    1
    26     6     7    1
    27     7     8    1
    28    11     9    1
    29    22    17    1
    30     8     3    1
    31    16    11    1
    32    28    23    1
@<TRIPOS>MOLECULE
*****
 28 32 0 0 0
SMALL
GASTEIGER

@<TRIPOS>ATOM
      1 O         139.6616  138.6636  156.0896 O.2     1  UNL1       -0.2749
      2 C         140.8265  138.1368  156.8740 C.2     1  UNL1        0.2252
      3 N         141.4504  136.8247  156.5005 N.am    1  UNL1       -0.2767
      4 C         142.6153  136.2979  157.2849 C.3     1  UNL1        0.1107
      5 C         143.2392  134.9858  156.9115 C.3     1  UNL1        0.0939
      6 N         142.6980  134.2006  155.7537 N.3     1  UNL1       -0.2711
      7 C         141.5330  134.7275  154.9692 C.3     1  UNL1        0.0939
      8 C         140.9092  136.0395  155.3427 C.3     1  UNL1        0.1107
      9 C         141.3677  138.9220  158.0318 C.3     1  UNL1        0.0768
     10 C         142.3586  139.9016  158.5872 C.3     1  UNL1        0.0096
     11 C         141.3142  139.3023  159.4817 C.3     1  UNL1        0.0113
     12 C         140.1392  138.3908  159.6775 C.3     1  UNL1        0.0178
     13 C         139.5053  138.2645  161.0311 C.3     1  UNL1        0.0721
     14 N         140.0465  139.0497  162.1889 N.3     1  UNL1       -0.2740
     15 C         141.2215  139.9612  161.9932 C.3     1  UNL1        0.0721
     16 C         141.8554  140.0875  160.6396 C.3     1  UNL1        0.0178
     17 C         139.4126  138.9233  163.5425 C.3     1  UNL1        0.0575
     18 C         139.2557  137.5718  164.1740 C.3     1  UNL1        0.0160
     19 C         138.6218  137.4454  165.5277 C.3     1  UNL1        0.0014
     20 C         138.1448  138.6706  166.2498 C.3     1  UNL1        0.0001
     21 C         138.3017  140.0221  165.6182 C.3     1  UNL1        0.0014
     22 C         138.9356  140.1484  164.2646 C.3     1  UNL1        0.0160
     23 C         143.3218  132.8886  155.3802 C.3     1  UNL1        0.0576
     24 C         144.3264  132.2493  156.2922 C.3     1  UNL1        0.0160
     25 C         144.9503  130.9372  155.9188 C.3     1  UNL1        0.0014
     26 C         144.5694  130.2645  154.6333 C.3     1  UNL1        0.0001
     27 C         143.5646  130.9039  153.7213 C.3     1  UNL1        0.0014
     28 C         142.9409  132.2159  154.0947 C.3     1  UNL1        0.0160
@<TRIPOS>BOND
     1     1     2    2
     2     2     9    1
     3     9    10    1
     4    10    11    1
     5    11    12    1
     6    12    13    1
     7    13    14    1
     8    14    17    1
     9    17    18    1
    10    18    19    1
    11    19    20    1
    12    20    21    1
    13    21    22    1
    14    14    15    1
    15    15    16    1
    16     2     3   am
    17     3     4    1
    18     4     5    1
    19     5     6    1
    20     6    23    1
    21    23    24    1
    22    24    25    1
    23    25    26    1
    24    26    27    1
    25    27    28    1
    26     6     7    1
    27     7     8    1
    28    11     9    1
    29    22    17    1
    30     8     3    1
    31    16    11    1
    32    28    23    1
@<TRIPOS>MOLECULE
*****
 28 32 0 0 0
SMALL
GASTEIGER

@<TRIPOS>ATOM
      1 O         142.0012  137.9743  161.0264 O.2     1  UNL1       -0.2749
      2 C         140.6728  138.6414  161.2272 C.2     1  UNL1        0.2252
      3 N         140.1787  139.6448  160.2275 N.am    1  UNL1       -0.2767
      4 C         138.8503  140.3119  160.4283 C.3     1  UNL1        0.1107
      5 C         138.3563  141.3153  159.4287 C.3     1  UNL1        0.0939
      6 N         139.1906  141.6515  158.2283 N.3     1  UNL1       -0.2711
      7 C         140.5191  140.9843  158.0276 C.3     1  UNL1        0.0939
      8 C         141.0131  139.9810  159.0272 C.3     1  UNL1        0.1107
      9 C         139.8385  138.3052  162.4275 C.3     1  UNL1        0.0768
     10 C         138.7873  137.4596  163.0833 C.3     1  UNL1        0.0096
     11 C         139.4445  138.5683  163.8507 C.3     1  UNL1        0.0113
     12 C         140.4308  139.6966  163.9151 C.3     1  UNL1        0.0178
     13 C         140.5828  140.4886  165.1798 C.3     1  UNL1        0.0721
     14 N         139.7484  140.1524  166.3801 N.3     1  UNL1       -0.2740
     15 C         138.7621  139.0241  166.3157 C.3     1  UNL1        0.0721
     16 C         138.6102  138.2321  165.0510 C.3     1  UNL1        0.0178
     17 C         139.9005  140.9445  167.6449 C.3     1  UNL1        0.0575
     18 C         139.4828  140.3497  168.9571 C.3     1  UNL1        0.0160
     19 C         139.6348  141.1418  170.2218 C.3     1  UNL1        0.0014
     20 C         140.2045  142.5286  170.1743 C.3     1  UNL1        0.0001
     21 C         140.6221  143.1234  168.8621 C.3     1  UNL1        0.0014
     22 C         140.4701  142.3313  167.5974 C.3     1  UNL1        0.0160
     23 C         138.6966  142.6548  157.2287 C.3     1  UNL1        0.0576
     24 C         139.5833  143.7865  156.8010 C.3     1  UNL1        0.0160
     25 C         139.0893  144.7899  155.8014 C.3     1  UNL1        0.0014
     26 C         137.7086  144.6616  155.2295 C.3     1  UNL1        0.0001
     27 C         136.8218  143.5298  155.6573 C.3     1  UNL1        0.0014
     28 C         137.3158  142.5265  156.6569 C.3     1  UNL1        0.0160
@<TRIPOS>BOND
     1     1     2    2
     2     2     9    1
     3     9    10    1
     4    10    11    1
     5    11    12    1
     6    12    13    1
     7    13    14    1
     8    14    17    1
     9    17    18    1
    10    18    19    1
    11    19    20    1
    12    20    21    1
    13    21    22    1
    14    14    15    1
    15    15    16    1
    16     2     3   am
    17     3     4    1
    18     4     5    1
    19     5     6    1
    20     6    23    1
    21    23    24    1
    22    24    25    1
    23    25    26    1
    24    26    27    1
    25    27    28    1
    26     6     7    1
    27     7     8    1
    28    11     9    1
    29    22    17    1
    30     8     3    1
    31    16    11    1
    32    28    23    1
@<TRIPOS>MOLECULE
*****
 28 32 0 0 0
SMALL
GASTEIGER

@<TRIPOS>ATOM
      1 O         144.9661  141.8231  162.0464 O.2     1  UNL1       -0.2749
      2 C         144.4413  140.4235  162.1718 C.2     1  UNL1        0.2252
      3 N         143.9252  139.7047  160.9606 N.am    1  UNL1       -0.2767
      4 C         143.4004  138.3051  161.0859 C.3     1  UNL1        0.1107
      5 C         142.8843  137.5863  159.8747 C.3     1  UNL1        0.0939
      6 N         142.8929  138.2672  158.5381 N.3     1  UNL1       -0.2711
      7 C         143.4177  139.6668  158.4128 C.3     1  UNL1        0.0939
      8 C         143.9338  140.3856  159.6240 C.3     1  UNL1        0.1107
      9 C         144.4326  139.7427  163.5084 C.3     1  UNL1        0.0768
     10 C         144.9530  138.6770  164.4267 C.3     1  UNL1        0.0096
     11 C         143.8971  139.6291  164.9049 C.3     1  UNL1        0.0113
     12 C         142.9870  140.7940  164.6507 C.3     1  UNL1        0.0178
     13 C         142.0683  141.2781  165.7330 C.3     1  UNL1        0.0721
     14 N         142.0596  140.5972  167.0695 N.3     1  UNL1       -0.2740
     15 C         142.9697  139.4323  167.3238 C.3     1  UNL1        0.0721
     16 C         143.8884  138.9483  166.2414 C.3     1  UNL1        0.0178
     17 C         141.1408  141.0814  168.1519 C.3     1  UNL1        0.0575
     18 C         140.1661  140.1347  168.7873 C.3     1  UNL1        0.0160
     19 C         139.2472  140.6189  169.8697 C.3     1  UNL1        0.0014
     20 C         139.3032  142.0496  170.3166 C.3     1  UNL1        0.0001
     21 C         140.2779  142.9963  169.6811 C.3     1  UNL1        0.0014
     22 C         141.1967  142.5121  168.5988 C.3     1  UNL1        0.0160
     23 C         142.3768  137.5485  157.3270 C.3     1  UNL1        0.0576
     24 C         143.3239  136.7915  156.4438 C.3     1  UNL1        0.0160
     25 C         142.8079  136.0728  155.2325 C.3     1  UNL1        0.0014
     26 C         141.3447  136.1110  154.9045 C.3     1  UNL1        0.0001
     27 C         140.3976  136.8679  155.7877 C.3     1  UNL1        0.0014
     28 C         140.9137  137.5867  156.9989 C.3     1  UNL1        0.0160
@<TRIPOS>BOND
     1     1     2    2
     2     2     9    1
     3     9    10    1
     4    10    11    1
     5    11    12    1
     6    12    13    1
     7    13    14    1
     8    14    17    1
     9    17    18    1
    10    18    19    1
    11    19    20    1
    12    20    21    1
    13    21    22    1
    14    14    15    1
    15    15    16    1
    16     2     3   am
    17     3     4    1
    18     4     5    1
    19     5     6    1
    20     6    23    1
    21    23    24    1
    22    24    25    1
    23    25    26    1
    24    26    27    1
    25    27    28    1
    26     6     7    1
    27     7     8    1
    28    11     9    1
    29    22    17    1
    30     8     3    1
    31    16    11    1
    32    28    23    1
@<TRIPOS>MOLECULE
*****
 28 32 0 0 0
SMALL
GASTEIGER

@<TRIPOS>ATOM
      1 O         139.2242  146.5730  161.3676 O.2     1  UNL1       -0.2749
      2 C         140.3381  145.5697  161.3195 C.2     1  UNL1        0.2252
      3 N         140.9210  145.1588  159.9998 N.am    1  UNL1       -0.2767
      4 C         142.0349  144.1555  159.9517 C.3     1  UNL1        0.1107
      5 C         142.6178  143.7446  158.6320 C.3     1  UNL1        0.0939
      6 N         142.0867  144.3372  157.3604 N.3     1  UNL1       -0.2711
      7 C         140.9727  145.3406  157.4086 C.3     1  UNL1        0.0939
      8 C         140.3899  145.7514  158.7283 C.3     1  UNL1        0.1107
      9 C         140.8692  144.9771  162.5910 C.3     1  UNL1        0.0768
     10 C         141.7917  145.0491  163.7716 C.3     1  UNL1        0.0096
     11 C         140.8668  143.8789  163.6127 C.3     1  UNL1        0.0113
     12 C         139.8002  143.1618  162.8393 C.3     1  UNL1        0.0178
     13 C         139.2648  141.8522  163.3374 C.3     1  UNL1        0.0721
     14 N         139.7960  141.2596  164.6089 N.3     1  UNL1       -0.2740
     15 C         140.8625  141.9767  165.3823 C.3     1  UNL1        0.0721
     16 C         141.3979  143.2864  164.8842 C.3     1  UNL1        0.0178
     17 C         139.2605  139.9499  165.1070 C.3     1  UNL1        0.0575
     18 C         138.3636  139.9147  166.3087 C.3     1  UNL1        0.0160
     19 C         137.8281  138.6050  166.8068 C.3     1  UNL1        0.0014
     20 C         138.1896  137.3306  166.1031 C.3     1  UNL1        0.0001
     21 C         139.0866  137.3659  164.9013 C.3     1  UNL1        0.0014
     22 C         139.6220  138.6755  164.4033 C.3     1  UNL1        0.0160
     23 C         142.6695  143.9264  156.0408 C.3     1  UNL1        0.0576
     24 C         143.2007  142.5359  155.8558 C.3     1  UNL1        0.0160
     25 C         143.7836  142.1250  154.5361 C.3     1  UNL1        0.0014
     26 C         143.8352  143.1047  153.4014 C.3     1  UNL1        0.0001
     27 C         143.3040  144.4953  153.5865 C.3     1  UNL1        0.0014
     28 C         142.7212  144.9061  154.9061 C.3     1  UNL1        0.0160
@<TRIPOS>BOND
     1     1     2    2
     2     2     9    1
     3     9    10    1
     4    10    11    1
     5    11    12    1
     6    12    13    1
     7    13    14    1
     8    14    17    1
     9    17    18    1
    10    18    19    1
    11    19    20    1
    12    20    21    1
    13    21    22    1
    14    14    15    1
    15    15    16    1
    16     2     3   am
    17     3     4    1
    18     4     5    1
    19     5     6    1
    20     6    23    1
    21    23    24    1
    22    24    25    1
    23    25    26    1
    24    26    27    1
    25    27    28    1
    26     6     7    1
    27     7     8    1
    28    11     9    1
    29    22    17    1
    30     8     3    1
    31    16    11    1
    32    28    23    1
@<TRIPOS>MOLECULE
*****
 28 32 0 0 0
SMALL
GASTEIGER

@<TRIPOS>ATOM
      1 O         142.1157  144.6775  160.8344 O.2     1  UNL1       -0.2749
      2 C         142.8184  143.4066  161.2095 C.2     1  UNL1        0.2252
      3 N         142.8693  142.2633  160.2398 N.am    1  UNL1       -0.2767
      4 C         143.5720  140.9923  160.6149 C.3     1  UNL1        0.1107
      5 C         143.6228  139.8490  159.6451 C.3     1  UNL1        0.0939
      6 N         142.9709  139.9767  158.3003 N.3     1  UNL1       -0.2711
      7 C         142.2681  141.2478  157.9252 C.3     1  UNL1        0.0939
      8 C         142.2173  142.3910  158.8949 C.3     1  UNL1        0.1107
      9 C         143.4704  143.2789  162.5544 C.3     1  UNL1        0.0768
     10 C         144.6958  143.3534  163.4163 C.3     1  UNL1        0.0096
     11 C         143.3743  142.9831  164.0218 C.3     1  UNL1        0.0113
     12 C         141.9039  142.7264  163.8737 C.3     1  UNL1        0.0178
     13 C         141.0855  142.3419  165.0705 C.3     1  UNL1        0.0721
     14 N         141.7375  142.2141  166.4153 N.3     1  UNL1       -0.2740
     15 C         143.2079  142.4709  166.5634 C.3     1  UNL1        0.0721
     16 C         144.0263  142.8554  165.3666 C.3     1  UNL1        0.0178
     17 C         140.9190  141.8296  167.6121 C.3     1  UNL1        0.0575
     18 C         140.7847  142.7792  168.7654 C.3     1  UNL1        0.0160
     19 C         139.9662  142.3947  169.9622 C.3     1  UNL1        0.0014
     20 C         139.2821  141.0605  170.0057 C.3     1  UNL1        0.0001
     21 C         139.4164  140.1109  168.8523 C.3     1  UNL1        0.0014
     22 C         140.2348  140.4954  167.6556 C.3     1  UNL1        0.0160
     23 C         143.0216  138.8335  157.3306 C.3     1  UNL1        0.0576
     24 C         143.8350  138.9501  156.0757 C.3     1  UNL1        0.0160
     25 C         143.8858  137.8069  155.1059 C.3     1  UNL1        0.0014
     26 C         143.1233  136.5471  155.3910 C.3     1  UNL1        0.0001
     27 C         142.3098  136.4305  156.6460 C.3     1  UNL1        0.0014
     28 C         142.2591  137.5737  157.6157 C.3     1  UNL1        0.0160
@<TRIPOS>BOND
     1     1     2    2
     2     2     9    1
     3     9    10    1
     4    10    11    1
     5    11    12    1
     6    12    13    1
     7    13    14    1
     8    14    17    1
     9    17    18    1
    10    18    19    1
    11    19    20    1
    12    20    21    1
    13    21    22    1
    14    14    15    1
    15    15    16    1
    16     2     3   am
    17     3     4    1
    18     4     5    1
    19     5     6    1
    20     6    23    1
    21    23    24    1
    22    24    25    1
    23    25    26    1
    24    26    27    1
    25    27    28    1
    26     6     7    1
    27     7     8    1
    28    11     9    1
    29    22    17    1
    30     8     3    1
    31    16    11    1
    32    28    23    1
@<TRIPOS>MOLECULE
*****
 28 32 0 0 0
SMALL
GASTEIGER

@<TRIPOS>ATOM
      1 O         143.8435  138.7806  156.8150 O.2     1  UNL1       -0.2749
      2 C         142.4540  138.2814  157.0795 C.2     1  UNL1        0.2252
      3 N         141.6108  138.9338  158.1348 N.am    1  UNL1       -0.2767
      4 C         140.2213  138.4345  158.3993 C.3     1  UNL1        0.1107
      5 C         139.3781  139.0869  159.4545 C.3     1  UNL1        0.0939
      6 N         139.9245  140.2385  160.2452 N.3     1  UNL1       -0.2711
      7 C         141.3141  140.7378  159.9806 C.3     1  UNL1        0.0939
      8 C         142.1572  140.0854  158.9254 C.3     1  UNL1        0.1107
      9 C         141.9077  137.1297  156.2888 C.3     1  UNL1        0.0768
     10 C         141.0079  136.6061  155.2090 C.3     1  UNL1        0.0096
     11 C         141.8611  135.6587  155.9992 C.3     1  UNL1        0.0113
     12 C         142.8732  135.4141  157.0789 C.3     1  UNL1        0.0178
     13 C         143.3389  134.0179  157.3680 C.3     1  UNL1        0.0721
     14 N         142.7925  132.8662  156.5773 N.3     1  UNL1       -0.2740
     15 C         141.7804  133.1108  155.4976 C.3     1  UNL1        0.0721
     16 C         141.3147  134.5070  155.2085 C.3     1  UNL1        0.0178
     17 C         143.2583  131.4699  156.8664 C.3     1  UNL1        0.0575
     18 C         144.3503  131.2358  157.8676 C.3     1  UNL1        0.0160
     19 C         144.8161  129.8394  158.1567 C.3     1  UNL1        0.0014
     20 C         144.1897  128.6774  157.4445 C.3     1  UNL1        0.0001
     21 C         143.0977  128.9116  156.4431 C.3     1  UNL1        0.0014
     22 C         142.6320  130.3078  156.1541 C.3     1  UNL1        0.0160
     23 C         139.0814  140.8909  161.3004 C.3     1  UNL1        0.0576
     24 C         138.6801  142.3291  161.1567 C.3     1  UNL1        0.0160
     25 C         137.8369  142.9815  162.2119 C.3     1  UNL1        0.0014
     26 C         137.3951  142.1958  163.4108 C.3     1  UNL1        0.0001
     27 C         137.7965  140.7576  163.5545 C.3     1  UNL1        0.0014
     28 C         138.6396  140.1052  162.4993 C.3     1  UNL1        0.0160
@<TRIPOS>BOND
     1     1     2    2
     2     2     9    1
     3     9    10    1
     4    10    11    1
     5    11    12    1
     6    12    13    1
     7    13    14    1
     8    14    17    1
     9    17    18    1
    10    18    19    1
    11    19    20    1
    12    20    21    1
    13    21    22    1
    14    14    15    1
    15    15    16    1
    16     2     3   am
    17     3     4    1
    18     4     5    1
    19     5     6    1
    20     6    23    1
    21    23    24    1
    22    24    25    1
    23    25    26    1
    24    26    27    1
    25    27    28    1
    26     6     7    1
    27     7     8    1
    28    11     9    1
    29    22    17    1
    30     8     3    1
    31    16    11    1
    32    28    23    1
@<TRIPOS>MOLECULE
*****
 28 32 0 0 0
SMALL
GASTEIGER

@<TRIPOS>ATOM
      1 O         143.8477  139.9975  160.7129 O.2     1  UNL1       -0.2749
      2 C         143.4431  141.3926  161.0868 C.2     1  UNL1        0.2252
      3 N         142.6177  142.2133  160.1406 N.am    1  UNL1       -0.2767
      4 C         142.2131  143.6084  160.5145 C.3     1  UNL1        0.1107
      5 C         141.3877  144.4290  159.5682 C.3     1  UNL1        0.0939
      6 N         140.9668  143.8544  158.2481 N.3     1  UNL1       -0.2711
      7 C         141.3715  142.4592  157.8742 C.3     1  UNL1        0.0939
      8 C         142.1968  141.6387  158.8204 C.3     1  UNL1        0.1107
      9 C         143.8639  141.9672  162.4069 C.3     1  UNL1        0.0768
     10 C         144.8446  142.7484  163.2303 C.3     1  UNL1        0.0096
     11 C         143.6121  142.1812  163.8701 C.3     1  UNL1        0.0113
     12 C         142.3343  141.4028  163.7640 C.3     1  UNL1        0.0178
     13 C         141.4774  141.1989  164.9781 C.3     1  UNL1        0.0721
     14 N         141.8982  141.7735  166.2982 N.3     1  UNL1       -0.2740
     15 C         143.1760  142.5520  166.4043 C.3     1  UNL1        0.0721
     16 C         144.0329  142.7558  165.1902 C.3     1  UNL1        0.0178
     17 C         141.0412  141.5696  167.5124 C.3     1  UNL1        0.0575
     18 C         140.2475  140.3062  167.6665 C.3     1  UNL1        0.0160
     19 C         139.3905  140.1022  168.8807 C.3     1  UNL1        0.0014
     20 C         139.3273  141.1618  169.9406 C.3     1  UNL1        0.0001
     21 C         140.1210  142.4253  169.7863 C.3     1  UNL1        0.0014
     22 C         140.9779  142.6291  168.5722 C.3     1  UNL1        0.0160
     23 C         140.1415  144.6750  157.3019 C.3     1  UNL1        0.0576
     24 C         139.1791  144.0019  156.3688 C.3     1  UNL1        0.0160
     25 C         138.3536  144.8224  155.4225 C.3     1  UNL1        0.0014
     26 C         138.4906  146.3161  155.4093 C.3     1  UNL1        0.0001
     27 C         139.4531  146.9892  156.3425 C.3     1  UNL1        0.0014
     28 C         140.2784  146.1687  157.2887 C.3     1  UNL1        0.0160
@<TRIPOS>BOND
     1     1     2    2
     2     2     9    1
     3     9    10    1
     4    10    11    1
     5    11    12    1
     6    12    13    1
     7    13    14    1
     8    14    17    1
     9    17    18    1
    10    18    19    1
    11    19    20    1
    12    20    21    1
    13    21    22    1
    14    14    15    1
    15    15    16    1
    16     2     3   am
    17     3     4    1
    18     4     5    1
    19     5     6    1
    20     6    23    1
    21    23    24    1
    22    24    25    1
    23    25    26    1
    24    26    27    1
    25    27    28    1
    26     6     7    1
    27     7     8    1
    28    11     9    1
    29    22    17    1
    30     8     3    1
    31    16    11    1
    32    28    23    1
@<TRIPOS>MOLECULE
*****
 28 32 0 0 0
SMALL
GASTEIGER

@<TRIPOS>ATOM
      1 O         137.8874  138.0675  162.0213 O.2     1  UNL1       -0.2749
      2 C         139.1375  138.8960  162.0475 C.2     1  UNL1        0.2252
      3 N         139.2924  140.0502  161.1020 N.am    1  UNL1       -0.2767
      4 C         140.5425  140.8787  161.1283 C.3     1  UNL1        0.1107
      5 C         140.6974  142.0329  160.1828 C.3     1  UNL1        0.0939
      6 N         139.6021  142.3585  159.2110 N.3     1  UNL1       -0.2711
      7 C         138.3520  141.5299  159.1847 C.3     1  UNL1        0.0939
      8 C         138.1971  140.3758  160.1302 C.3     1  UNL1        0.1107
      9 C         140.2328  138.5704  163.0193 C.3     1  UNL1        0.0768
     10 C         141.3660  137.6879  163.4515 C.3     1  UNL1        0.0096
     11 C         140.9966  138.8891  164.2703 C.3     1  UNL1        0.0113
     12 C         140.1290  140.0922  164.4936 C.3     1  UNL1        0.0178
     13 C         140.3566  140.9696  165.6886 C.3     1  UNL1        0.0721
     14 N         141.4519  140.6441  166.6604 N.3     1  UNL1       -0.2740
     15 C         142.3195  139.4410  166.4372 C.3     1  UNL1        0.0721
     16 C         142.0918  138.5635  165.2421 C.3     1  UNL1        0.0178
     17 C         141.6796  141.5216  167.8555 C.3     1  UNL1        0.0575
     18 C         140.5684  142.3853  168.3743 C.3     1  UNL1        0.0160
     19 C         140.7960  143.2629  169.5694 C.3     1  UNL1        0.0014
     20 C         142.1349  143.2767  170.2456 C.3     1  UNL1        0.0001
     21 C         143.2461  142.4129  169.7267 C.3     1  UNL1        0.0014
     22 C         143.0184  141.5354  168.5317 C.3     1  UNL1        0.0160
     23 C         139.7570  143.5126  158.2655 C.3     1  UNL1        0.0576
     24 C         140.6115  144.6849  158.6467 C.3     1  UNL1        0.0160
     25 C         140.7664  145.8391  157.7011 C.3     1  UNL1        0.0014
     26 C         140.0667  145.8209  156.3745 C.3     1  UNL1        0.0001
     27 C         139.2121  144.6485  155.9933 C.3     1  UNL1        0.0014
     28 C         139.0573  143.4944  156.9388 C.3     1  UNL1        0.0160
@<TRIPOS>BOND
     1     1     2    2
     2     2     9    1
     3     9    10    1
     4    10    11    1
     5    11    12    1
     6    12    13    1
     7    13    14    1
     8    14    17    1
     9    17    18    1
    10    18    19    1
    11    19    20    1
    12    20    21    1
    13    21    22    1
    14    14    15    1
    15    15    16    1
    16     2     3   am
    17     3     4    1
    18     4     5    1
    19     5     6    1
    20     6    23    1
    21    23    24    1
    22    24    25    1
    23    25    26    1
    24    26    27    1
    25    27    28    1
    26     6     7    1
    27     7     8    1
    28    11     9    1
    29    22    17    1
    30     8     3    1
    31    16    11    1
    32    28    23    1
