@<TRIPOS>MOLECULE
*****
 34 38 0 0 0
SMALL
GASTEIGER

@<TRIPOS>ATOM
      1 C         142.3476  143.2000  161.6627 C.ar    1  UNL1        0.1458
      2 N         142.7385  143.6602  160.2895 N.ar    1  UNL1       -0.2249
      3 C         141.7946  144.5028  159.4840 C.ar    1  UNL1        0.1260
      4 C         141.9033  145.1000  158.1123 C.ar    1  UNL1        0.1212
      5 N         140.6358  145.8516  157.8322 N.ar    1  UNL1       -0.2265
      6 N         139.7437  145.7189  159.0307 N.ar    1  UNL1       -0.1586
      7 C         140.4598  144.8853  160.0516 C.ar    1  UNL1        0.1762
      8 C         140.0690  144.4251  161.4247 C.ar    1  UNL1        0.2829
      9 O         138.7343  144.8076  161.9923 O.2     1  UNL1       -0.2652
     10 N         141.0130  143.5825  162.2302 N.ar    1  UNL1       -0.2793
     11 C         144.0927  144.4741  163.7438 C.3     1  UNL1        0.0311
     12 C         144.1642  142.9943  163.5088 C.ar    1  UNL1       -0.0189
     13 C         145.1081  142.1516  164.3143 C.ar    1  UNL1       -0.0042
     14 C         145.1795  140.6719  164.0792 C.ar    1  UNL1       -0.0003
     15 C         144.3070  140.0348  163.0387 C.ar    1  UNL1        0.0001
     16 C         143.3630  140.8775  162.2332 C.ar    1  UNL1        0.0027
     17 C         143.2916  142.3573  162.4682 C.ar    1  UNL1        0.0303
     18 C         140.3164  146.6038  156.5743 C.ar    1  UNL1        0.0831
     19 C         139.2726  147.6809  156.5891 C.ar    1  UNL1        0.0215
     20 C         138.9532  148.4330  155.3311 C.ar    1  UNL1        0.0312
     21 C         139.6777  148.1082  154.0585 C.ar    1  UNL1        0.1402
     22 F         139.3584  148.8604  152.8007 F       1  UNL1       -0.2042
     23 C         140.7216  147.0311  154.0438 C.ar    1  UNL1        0.0312
     24 C         141.0409  146.2789  155.3017 C.ar    1  UNL1        0.0215
     25 C         140.6221  143.1223  163.6034 C.3     1  UNL1        0.1119
     26 C         139.9607  141.7888  163.7875 C.3     1  UNL1        0.0388
     27 C         139.5814  140.9679  162.5906 C.3     1  UNL1        0.0048
     28 C         138.9200  139.6344  162.7747 C.3     1  UNL1        0.0174
     29 C         138.6377  139.1215  164.1559 C.3     1  UNL1        0.0720
     30 N         139.0168  139.9422  165.3528 N.3     1  UNL1       -0.2739
     31 C         139.6783  141.2759  165.1686 C.3     1  UNL1        0.0739
     32 C         138.7345  139.4293  166.7338 C.3     1  UNL1        0.0576
     33 C         137.6544  138.4112  166.9495 C.3     1  UNL1        0.0173
     34 C         139.5325  139.9347  167.8991 C.3     1  UNL1        0.0173
@<TRIPOS>BOND
     1    11    12    1
     2    12    13   ar
     3    13    14   ar
     4    14    15   ar
     5    15    16   ar
     6    16    17   ar
     7    17     1    1
     8     1     2   ar
     9     2     3   ar
    10     3     4   ar
    11     4     5   ar
    12     5    18    1
    13    18    19   ar
    14    19    20   ar
    15    20    21   ar
    16    21    22    1
    17    21    23   ar
    18    23    24   ar
    19     5     6   ar
    20     6     7   ar
    21     7     8   ar
    22     8     9    2
    23     8    10   ar
    24    10    25    1
    25    25    26    1
    26    26    27    1
    27    27    28    1
    28    28    29    1
    29    29    30    1
    30    30    32    1
    31    32    33    1
    32    32    34    1
    33    30    31    1
    34    17    12   ar
    35    10     1   ar
    36    31    26    1
    37     7     3   ar
    38    24    18   ar
@<TRIPOS>MOLECULE
*****
 34 38 0 0 0
SMALL
GASTEIGER

@<TRIPOS>ATOM
      1 C         141.2873  143.2706  162.5799 C.ar    1  UNL1        0.1458
      2 N         141.5695  142.9841  161.1347 N.ar    1  UNL1       -0.2249
      3 C         140.4347  142.7961  160.1720 C.ar    1  UNL1        0.1260
      4 C         140.4043  142.5051  158.7008 C.ar    1  UNL1        0.1212
      5 N         138.9687  142.4238  158.2740 N.ar    1  UNL1       -0.2265
      6 N         138.1117  142.6646  159.4813 N.ar    1  UNL1       -0.1586
      7 C         139.0178  142.8947  160.6544 C.ar    1  UNL1        0.1762
      8 C         138.7357  143.1812  162.0995 C.ar    1  UNL1        0.2829
      9 O         137.3188  143.2798  162.5819 O.2     1  UNL1       -0.2652
     10 N         139.8705  143.3692  163.0622 N.ar    1  UNL1       -0.2793
     11 C         142.5471  140.8879  163.8972 C.3     1  UNL1        0.0311
     12 C         143.0521  142.2673  164.2013 C.ar    1  UNL1       -0.0189
     13 C         144.1869  142.4553  165.1641 C.ar    1  UNL1       -0.0042
     14 C         144.6918  143.8346  165.4681 C.ar    1  UNL1       -0.0003
     15 C         144.0619  145.0260  164.8094 C.ar    1  UNL1        0.0001
     16 C         142.9271  144.8380  163.8467 C.ar    1  UNL1        0.0027
     17 C         142.4222  143.4586  163.5426 C.ar    1  UNL1        0.0303
     18 C         138.4763  142.1498  156.8838 C.ar    1  UNL1        0.0831
     19 C         139.3307  141.3753  155.9246 C.ar    1  UNL1        0.0215
     20 C         138.8383  141.1013  154.5344 C.ar    1  UNL1        0.0312
     21 C         137.4915  141.6019  154.1035 C.ar    1  UNL1        0.1402
     22 F         136.9992  141.3280  152.7133 F       1  UNL1       -0.2042
     23 C         136.6372  142.3765  155.0627 C.ar    1  UNL1        0.0312
     24 C         137.1296  142.6504  156.4529 C.ar    1  UNL1        0.0215
     25 C         139.5884  143.6557  164.5073 C.3     1  UNL1        0.1119
     26 C         139.7230  142.5653  165.5284 C.3     1  UNL1        0.0388
     27 C         140.5212  142.8007  166.7764 C.3     1  UNL1        0.0048
     28 C         140.6558  141.7102  167.7974 C.3     1  UNL1        0.0174
     29 C         139.9923  140.3841  167.5705 C.3     1  UNL1        0.0720
     30 N         139.1941  140.1487  166.3225 N.3     1  UNL1       -0.2739
     31 C         139.0595  141.2393  165.3015 C.3     1  UNL1        0.0739
     32 C         138.5306  138.8227  166.0956 C.3     1  UNL1        0.0576
     33 C         138.8968  137.9958  164.8990 C.3     1  UNL1        0.0173
     34 C         137.5009  138.3236  167.0655 C.3     1  UNL1        0.0173
@<TRIPOS>BOND
     1    11    12    1
     2    12    13   ar
     3    13    14   ar
     4    14    15   ar
     5    15    16   ar
     6    16    17   ar
     7    17     1    1
     8     1     2   ar
     9     2     3   ar
    10     3     4   ar
    11     4     5   ar
    12     5    18    1
    13    18    19   ar
    14    19    20   ar
    15    20    21   ar
    16    21    22    1
    17    21    23   ar
    18    23    24   ar
    19     5     6   ar
    20     6     7   ar
    21     7     8   ar
    22     8     9    2
    23     8    10   ar
    24    10    25    1
    25    25    26    1
    26    26    27    1
    27    27    28    1
    28    28    29    1
    29    29    30    1
    30    30    32    1
    31    32    33    1
    32    32    34    1
    33    30    31    1
    34    17    12   ar
    35    10     1   ar
    36    31    26    1
    37     7     3   ar
    38    24    18   ar
@<TRIPOS>MOLECULE
*****
 34 38 0 0 0
SMALL
GASTEIGER

@<TRIPOS>ATOM
      1 C         140.6656  142.2562  161.8392 C.ar    1  UNL1        0.1458
      2 N         141.6992  143.0166  161.0623 N.ar    1  UNL1       -0.2249
      3 C         142.5589  142.3041  160.0607 C.ar    1  UNL1        0.1260
      4 C         143.6522  142.7856  159.1535 C.ar    1  UNL1        0.1212
      5 N         144.1540  141.6102  158.3682 N.ar    1  UNL1       -0.2265
      6 N         143.3709  140.4024  158.7900 N.ar    1  UNL1       -0.1586
      7 C         142.3850  140.8313  159.8360 C.ar    1  UNL1        0.1762
      8 C         141.3515  140.0709  160.6129 C.ar    1  UNL1        0.2829
      9 O         141.1776  138.5980  160.3883 O.2     1  UNL1       -0.2652
     10 N         140.4918  140.7834  161.6145 N.ar    1  UNL1       -0.2793
     11 C         141.7771  142.9681  164.5332 C.3     1  UNL1        0.0311
     12 C         140.3616  143.3247  164.1879 C.ar    1  UNL1       -0.0189
     13 C         139.5019  144.0372  165.1895 C.ar    1  UNL1       -0.0042
     14 C         138.0864  144.3937  164.8441 C.ar    1  UNL1       -0.0003
     15 C         137.5306  144.0378  163.4971 C.ar    1  UNL1        0.0001
     16 C         138.3903  143.3253  162.4955 C.ar    1  UNL1        0.0027
     17 C         139.8058  142.9687  162.8409 C.ar    1  UNL1        0.0303
     18 C         145.2471  141.6379  157.3414 C.ar    1  UNL1        0.0831
     19 C         145.1960  140.7069  156.1663 C.ar    1  UNL1        0.0215
     20 C         146.2892  140.7346  155.1395 C.ar    1  UNL1        0.0312
     21 C         147.4333  141.6931  155.2877 C.ar    1  UNL1        0.1402
     22 F         148.5264  141.7208  154.2608 F       1  UNL1       -0.2042
     23 C         147.4844  142.6241  156.4627 C.ar    1  UNL1        0.0312
     24 C         146.3913  142.5964  157.4895 C.ar    1  UNL1        0.0215
     25 C         139.4582  140.0230  162.3915 C.3     1  UNL1        0.1119
     26 C         139.5858  139.8909  163.8801 C.3     1  UNL1        0.0388
     27 C         138.3829  140.0808  164.7558 C.3     1  UNL1        0.0048
     28 C         138.5105  139.9488  166.2445 C.3     1  UNL1        0.0174
     29 C         139.8412  139.6268  166.8575 C.3     1  UNL1        0.0720
     30 N         141.0442  139.4369  165.9819 N.3     1  UNL1       -0.2739
     31 C         140.9164  139.5689  164.4931 C.3     1  UNL1        0.0739
     32 C         142.3748  139.1149  166.5949 C.3     1  UNL1        0.0576
     33 C         143.3994  138.3544  165.8066 C.3     1  UNL1        0.0173
     34 C         142.6806  139.5534  167.9965 C.3     1  UNL1        0.0173
@<TRIPOS>BOND
     1    11    12    1
     2    12    13   ar
     3    13    14   ar
     4    14    15   ar
     5    15    16   ar
     6    16    17   ar
     7    17     1    1
     8     1     2   ar
     9     2     3   ar
    10     3     4   ar
    11     4     5   ar
    12     5    18    1
    13    18    19   ar
    14    19    20   ar
    15    20    21   ar
    16    21    22    1
    17    21    23   ar
    18    23    24   ar
    19     5     6   ar
    20     6     7   ar
    21     7     8   ar
    22     8     9    2
    23     8    10   ar
    24    10    25    1
    25    25    26    1
    26    26    27    1
    27    27    28    1
    28    28    29    1
    29    29    30    1
    30    30    32    1
    31    32    33    1
    32    32    34    1
    33    30    31    1
    34    17    12   ar
    35    10     1   ar
    36    31    26    1
    37     7     3   ar
    38    24    18   ar
@<TRIPOS>MOLECULE
*****
 34 38 0 0 0
SMALL
GASTEIGER

@<TRIPOS>ATOM
      1 C         141.7552  141.8054  162.0844 C.ar    1  UNL1        0.1458
      2 N         141.5106  141.3715  160.6694 N.ar    1  UNL1       -0.2249
      3 C         140.2522  141.7845  159.9653 C.ar    1  UNL1        0.1260
      4 C         139.7402  141.5113  158.5821 C.ar    1  UNL1        0.1212
      5 N         138.4101  142.1894  158.4379 N.ar    1  UNL1       -0.2265
      6 N         138.1000  142.8817  159.7320 N.ar    1  UNL1       -0.1586
      7 C         139.2385  142.6315  160.6759 C.ar    1  UNL1        0.1762
      8 C         139.4832  143.0654  162.0908 C.ar    1  UNL1        0.2829
      9 O         138.4695  143.9123  162.8015 O.2     1  UNL1       -0.2652
     10 N         140.7416  142.6523  162.7950 N.ar    1  UNL1       -0.2793
     11 C         144.1358  143.6310  162.0961 C.3     1  UNL1        0.0311
     12 C         144.2040  142.3052  162.7945 C.ar    1  UNL1       -0.0189
     13 C         145.4623  141.8921  163.4987 C.ar    1  UNL1       -0.0042
     14 C         145.5304  140.5663  164.1970 C.ar    1  UNL1       -0.0003
     15 C         144.3401  139.6536  164.1911 C.ar    1  UNL1        0.0001
     16 C         143.0817  140.0666  163.4869 C.ar    1  UNL1        0.0027
     17 C         143.0137  141.3924  162.7886 C.ar    1  UNL1        0.0303
     18 C         137.5423  142.1773  157.2145 C.ar    1  UNL1        0.0831
     19 C         137.5037  143.3737  156.3105 C.ar    1  UNL1        0.0215
     20 C         136.6359  143.3615  155.0870 C.ar    1  UNL1        0.0312
     21 C         135.8066  142.1531  154.7676 C.ar    1  UNL1        0.1402
     22 F         134.9388  142.1411  153.5441 F       1  UNL1       -0.2042
     23 C         135.8452  140.9567  155.6716 C.ar    1  UNL1        0.0312
     24 C         136.7130  140.9689  156.8950 C.ar    1  UNL1        0.0215
     25 C         140.9862  143.0863  164.2099 C.3     1  UNL1        0.1119
     26 C         140.6125  142.1823  165.3469 C.3     1  UNL1        0.0388
     27 C         141.0391  142.5197  166.7449 C.3     1  UNL1        0.0048
     28 C         140.6654  141.6157  167.8819 C.3     1  UNL1        0.0174
     29 C         139.8651  140.3740  167.6211 C.3     1  UNL1        0.0720
     30 N         139.4385  140.0365  166.2232 N.3     1  UNL1       -0.2739
     31 C         139.8123  140.9407  165.0861 C.3     1  UNL1        0.0739
     32 C         138.6383  138.7949  165.9624 C.3     1  UNL1        0.0576
     33 C         138.8506  138.0178  164.6972 C.3     1  UNL1        0.0173
     34 C         137.6257  138.3305  166.9670 C.3     1  UNL1        0.0173
@<TRIPOS>BOND
     1    11    12    1
     2    12    13   ar
     3    13    14   ar
     4    14    15   ar
     5    15    16   ar
     6    16    17   ar
     7    17     1    1
     8     1     2   ar
     9     2     3   ar
    10     3     4   ar
    11     4     5   ar
    12     5    18    1
    13    18    19   ar
    14    19    20   ar
    15    20    21   ar
    16    21    22    1
    17    21    23   ar
    18    23    24   ar
    19     5     6   ar
    20     6     7   ar
    21     7     8   ar
    22     8     9    2
    23     8    10   ar
    24    10    25    1
    25    25    26    1
    26    26    27    1
    27    27    28    1
    28    28    29    1
    29    29    30    1
    30    30    32    1
    31    32    33    1
    32    32    34    1
    33    30    31    1
    34    17    12   ar
    35    10     1   ar
    36    31    26    1
    37     7     3   ar
    38    24    18   ar
@<TRIPOS>MOLECULE
*****
 34 38 0 0 0
SMALL
GASTEIGER

@<TRIPOS>ATOM
      1 C         141.0008  142.2407  162.1230 C.ar    1  UNL1        0.1458
      2 N         141.7264  142.9877  161.0433 N.ar    1  UNL1       -0.2249
      3 C         142.6729  142.2608  160.1347 C.ar    1  UNL1        0.1260
      4 C         143.5228  142.7272  158.9900 C.ar    1  UNL1        0.1212
      5 N         144.2690  141.5417  158.4536 N.ar    1  UNL1       -0.2265
      6 N         143.8803  140.3426  159.2667 N.ar    1  UNL1       -0.1586
      7 C         142.8939  140.7870  160.3056 C.ar    1  UNL1        0.1762
      8 C         142.1683  140.0401  161.3853 C.ar    1  UNL1        0.2829
      9 O         142.3892  138.5664  161.5563 O.2     1  UNL1       -0.2652
     10 N         141.2217  140.7670  162.2940 N.ar    1  UNL1       -0.2793
     11 C         142.0348  143.5979  164.5905 C.3     1  UNL1        0.0311
     12 C         140.5712  143.6462  164.2655 C.ar    1  UNL1       -0.0189
     13 C         139.6246  144.3731  165.1741 C.ar    1  UNL1       -0.0042
     14 C         138.1611  144.4213  164.8490 C.ar    1  UNL1       -0.0003
     15 C         137.6441  143.7427  163.6153 C.ar    1  UNL1        0.0001
     16 C         138.5906  143.0159  162.7066 C.ar    1  UNL1        0.0027
     17 C         140.0542  142.9676  163.0317 C.ar    1  UNL1        0.0303
     18 C         145.2344  141.5533  157.3057 C.ar    1  UNL1        0.0831
     19 C         145.0458  140.6066  156.1575 C.ar    1  UNL1        0.0215
     20 C         146.0113  140.6182  155.0096 C.ar    1  UNL1        0.0312
     21 C         147.1653  141.5764  155.0097 C.ar    1  UNL1        0.1402
     22 F         148.1308  141.5879  153.8618 F       1  UNL1       -0.2042
     23 C         147.3539  142.5231  156.1579 C.ar    1  UNL1        0.0312
     24 C         146.3884  142.5115  157.3058 C.ar    1  UNL1        0.0215
     25 C         140.4961  140.0201  163.3737 C.3     1  UNL1        0.1119
     26 C         141.0828  139.9355  164.7515 C.3     1  UNL1        0.0388
     27 C         142.3598  139.1817  164.9780 C.3     1  UNL1        0.0048
     28 C         142.9465  139.0972  166.3558 C.3     1  UNL1        0.0174
     29 C         142.2563  139.7665  167.5073 C.3     1  UNL1        0.0720
     30 N         140.9793  140.5203  167.2808 N.3     1  UNL1       -0.2739
     31 C         140.3926  140.6048  165.9029 C.3     1  UNL1        0.0739
     32 C         140.2892  141.1895  168.4323 C.3     1  UNL1        0.0576
     33 C         140.5233  142.6461  168.7030 C.3     1  UNL1        0.0173
     34 C         139.3649  140.4019  169.3130 C.3     1  UNL1        0.0173
@<TRIPOS>BOND
     1    11    12    1
     2    12    13   ar
     3    13    14   ar
     4    14    15   ar
     5    15    16   ar
     6    16    17   ar
     7    17     1    1
     8     1     2   ar
     9     2     3   ar
    10     3     4   ar
    11     4     5   ar
    12     5    18    1
    13    18    19   ar
    14    19    20   ar
    15    20    21   ar
    16    21    22    1
    17    21    23   ar
    18    23    24   ar
    19     5     6   ar
    20     6     7   ar
    21     7     8   ar
    22     8     9    2
    23     8    10   ar
    24    10    25    1
    25    25    26    1
    26    26    27    1
    27    27    28    1
    28    28    29    1
    29    29    30    1
    30    30    32    1
    31    32    33    1
    32    32    34    1
    33    30    31    1
    34    17    12   ar
    35    10     1   ar
    36    31    26    1
    37     7     3   ar
    38    24    18   ar
@<TRIPOS>MOLECULE
*****
 34 38 0 0 0
SMALL
GASTEIGER

@<TRIPOS>ATOM
      1 C         139.8451  140.4543  163.2010 C.ar    1  UNL1        0.1458
      2 N         138.9524  141.1178  162.1945 N.ar    1  UNL1       -0.2249
      3 C         139.5460  141.9694  161.1118 C.ar    1  UNL1        0.1260
      4 C         138.9225  142.7432  159.9882 C.ar    1  UNL1        0.1212
      5 N         140.0234  143.4097  159.2175 N.ar    1  UNL1       -0.2265
      6 N         141.3272  143.0478  159.8648 N.ar    1  UNL1       -0.1586
      7 C         141.0322  142.1577  161.0356 C.ar    1  UNL1        0.1762
      8 C         141.9248  141.4942  162.0421 C.ar    1  UNL1        0.2829
      9 O         143.4110  141.6824  161.9659 O.2     1  UNL1       -0.2652
     10 N         141.3312  140.6425  163.1248 N.ar    1  UNL1       -0.2793
     11 C         139.8493  137.4665  162.9311 C.3     1  UNL1        0.0311
     12 C         139.2536  138.1087  164.1489 C.ar    1  UNL1       -0.0189
     13 C         138.6600  137.2570  165.2316 C.ar    1  UNL1       -0.0042
     14 C         138.0644  137.8992  166.4493 C.ar    1  UNL1       -0.0003
     15 C         138.0622  139.3931  166.5842 C.ar    1  UNL1        0.0001
     16 C         138.6558  140.2448  165.5015 C.ar    1  UNL1        0.0027
     17 C         139.2515  139.6026  164.2838 C.ar    1  UNL1        0.0303
     18 C         139.8507  144.2844  158.0113 C.ar    1  UNL1        0.0831
     19 C         139.1492  143.7556  156.7955 C.ar    1  UNL1        0.0215
     20 C         138.9767  144.6304  155.5893 C.ar    1  UNL1        0.0312
     21 C         139.5055  146.0341  155.5989 C.ar    1  UNL1        0.1402
     22 F         139.3328  146.9089  154.3926 F       1  UNL1       -0.2042
     23 C         140.2069  146.5629  156.8147 C.ar    1  UNL1        0.0312
     24 C         140.3795  145.6881  158.0209 C.ar    1  UNL1        0.0215
     25 C         142.2239  139.9791  164.1313 C.3     1  UNL1        0.1119
     26 C         142.4332  140.6069  165.4773 C.3     1  UNL1        0.0388
     27 C         143.1423  141.9241  165.5885 C.3     1  UNL1        0.0048
     28 C         143.3516  142.5519  166.9346 C.3     1  UNL1        0.0174
     29 C         142.8516  141.8627  168.1696 C.3     1  UNL1        0.0720
     30 N         142.1425  140.5456  168.0584 N.3     1  UNL1       -0.2739
     31 C         141.9333  139.9177  166.7123 C.3     1  UNL1        0.0739
     32 C         141.6426  139.8564  169.2934 C.3     1  UNL1        0.0576
     33 C         140.2611  140.1404  169.8036 C.3     1  UNL1        0.0173
     34 C         142.5245  138.8830  170.0181 C.3     1  UNL1        0.0173
@<TRIPOS>BOND
     1    11    12    1
     2    12    13   ar
     3    13    14   ar
     4    14    15   ar
     5    15    16   ar
     6    16    17   ar
     7    17     1    1
     8     1     2   ar
     9     2     3   ar
    10     3     4   ar
    11     4     5   ar
    12     5    18    1
    13    18    19   ar
    14    19    20   ar
    15    20    21   ar
    16    21    22    1
    17    21    23   ar
    18    23    24   ar
    19     5     6   ar
    20     6     7   ar
    21     7     8   ar
    22     8     9    2
    23     8    10   ar
    24    10    25    1
    25    25    26    1
    26    26    27    1
    27    27    28    1
    28    28    29    1
    29    29    30    1
    30    30    32    1
    31    32    33    1
    32    32    34    1
    33    30    31    1
    34    17    12   ar
    35    10     1   ar
    36    31    26    1
    37     7     3   ar
    38    24    18   ar
@<TRIPOS>MOLECULE
*****
 34 38 0 0 0
SMALL
GASTEIGER

@<TRIPOS>ATOM
      1 C         140.4333  141.2245  162.3510 C.ar    1  UNL1        0.1458
      2 N         140.2043  141.1137  160.8727 N.ar    1  UNL1       -0.2249
      3 C         140.7938  139.9668  160.1064 C.ar    1  UNL1        0.1260
      4 C         140.7389  139.5964  158.6539 C.ar    1  UNL1        0.1212
      5 N         141.5233  138.3314  158.4682 N.ar    1  UNL1       -0.2265
      6 N         142.0631  137.9201  159.8059 N.ar    1  UNL1       -0.1586
      7 C         141.6122  138.9308  160.8184 C.ar    1  UNL1        0.1762
      8 C         141.8411  139.0417  162.2967 C.ar    1  UNL1        0.2829
      9 O         142.6596  138.0057  163.0087 O.2     1  UNL1       -0.2652
     10 N         141.2516  140.1885  163.0629 N.ar    1  UNL1       -0.2793
     11 C         137.5304  141.1889  163.1073 C.3     1  UNL1        0.0311
     12 C         138.3923  142.3536  163.4955 C.ar    1  UNL1       -0.0189
     13 C         137.8028  143.5005  164.2618 C.ar    1  UNL1       -0.0042
     14 C         138.6648  144.6651  164.6499 C.ar    1  UNL1       -0.0003
     15 C         140.1162  144.6829  164.2718 C.ar    1  UNL1        0.0001
     16 C         140.7057  143.5360  163.5055 C.ar    1  UNL1        0.0027
     17 C         139.8437  142.3714  163.1173 C.ar    1  UNL1        0.0303
     18 C         141.7315  137.6053  157.1723 C.ar    1  UNL1        0.0831
     19 C         143.1211  137.2852  156.7067 C.ar    1  UNL1        0.0215
     20 C         143.3292  136.5590  155.4108 C.ar    1  UNL1        0.0312
     21 C         142.1478  136.1529  154.5805 C.ar    1  UNL1        0.1402
     22 F         142.3560  135.4268  153.2845 F       1  UNL1       -0.2042
     23 C         140.7583  136.4730  155.0460 C.ar    1  UNL1        0.0312
     24 C         140.5502  137.1992  156.3420 C.ar    1  UNL1        0.0215
     25 C         141.4806  140.2994  164.5413 C.3     1  UNL1        0.1119
     26 C         140.4145  139.8598  165.5004 C.3     1  UNL1        0.0388
     27 C         139.3357  138.9224  165.0446 C.3     1  UNL1        0.0048
     28 C         138.2696  138.4828  166.0037 C.3     1  UNL1        0.0174
     29 C         138.2821  138.9805  167.4187 C.3     1  UNL1        0.0720
     30 N         139.3608  139.9179  167.8745 N.3     1  UNL1       -0.2739
     31 C         140.4269  140.3575  166.9153 C.3     1  UNL1        0.0739
     32 C         139.3732  140.4156  169.2895 C.3     1  UNL1        0.0576
     33 C         138.2194  140.1164  170.1999 C.3     1  UNL1        0.0173
     34 C         140.5397  141.2126  169.7939 C.3     1  UNL1        0.0173
@<TRIPOS>BOND
     1    11    12    1
     2    12    13   ar
     3    13    14   ar
     4    14    15   ar
     5    15    16   ar
     6    16    17   ar
     7    17     1    1
     8     1     2   ar
     9     2     3   ar
    10     3     4   ar
    11     4     5   ar
    12     5    18    1
    13    18    19   ar
    14    19    20   ar
    15    20    21   ar
    16    21    22    1
    17    21    23   ar
    18    23    24   ar
    19     5     6   ar
    20     6     7   ar
    21     7     8   ar
    22     8     9    2
    23     8    10   ar
    24    10    25    1
    25    25    26    1
    26    26    27    1
    27    27    28    1
    28    28    29    1
    29    29    30    1
    30    30    32    1
    31    32    33    1
    32    32    34    1
    33    30    31    1
    34    17    12   ar
    35    10     1   ar
    36    31    26    1
    37     7     3   ar
    38    24    18   ar
@<TRIPOS>MOLECULE
*****
 34 38 0 0 0
SMALL
GASTEIGER

@<TRIPOS>ATOM
      1 C         139.6398  141.2204  162.9272 C.ar    1  UNL1        0.1458
      2 N         140.0028  141.3626  161.4787 N.ar    1  UNL1       -0.2249
      3 C         140.3503  140.1481  160.6699 C.ar    1  UNL1        0.1260
      4 C         140.7452  139.9785  159.2328 C.ar    1  UNL1        0.1212
      5 N         140.9739  138.5170  158.9843 N.ar    1  UNL1       -0.2265
      6 N         140.7203  137.7833  160.2679 N.ar    1  UNL1       -0.1586
      7 C         140.3349  138.7914  161.3096 C.ar    1  UNL1        0.1762
      8 C         139.9720  138.6493  162.7581 C.ar    1  UNL1        0.2829
      9 O         139.9565  137.2926  163.3978 O.2     1  UNL1       -0.2652
     10 N         139.6244  139.8638  163.5668 N.ar    1  UNL1       -0.2793
     11 C         141.8094  142.8045  164.2627 C.3     1  UNL1        0.0311
     12 C         140.3770  143.2270  164.4038 C.ar    1  UNL1       -0.0189
     13 C         140.0295  144.4416  165.2125 C.ar    1  UNL1       -0.0042
     14 C         138.5971  144.8641  165.3535 C.ar    1  UNL1       -0.0003
     15 C         137.5123  144.0720  164.6857 C.ar    1  UNL1        0.0001
     16 C         137.8599  142.8575  163.8770 C.ar    1  UNL1        0.0027
     17 C         139.2923  142.4350  163.7360 C.ar    1  UNL1        0.0303
     18 C         141.3841  137.8978  157.6811 C.ar    1  UNL1        0.0831
     19 C         142.8377  137.7869  157.3281 C.ar    1  UNL1        0.0215
     20 C         143.2478  137.1677  156.0249 C.ar    1  UNL1        0.0312
     21 C         142.2044  136.6594  155.0746 C.ar    1  UNL1        0.1402
     22 F         142.6146  136.0403  153.7714 F       1  UNL1       -0.2042
     23 C         140.7508  136.7703  155.4277 C.ar    1  UNL1        0.0312
     24 C         140.3407  137.3895  156.7309 C.ar    1  UNL1        0.0215
     25 C         139.2615  139.7216  165.0154 C.3     1  UNL1        0.1119
     26 C         140.2988  139.9500  166.0744 C.3     1  UNL1        0.0388
     27 C         141.6439  139.2959  165.9603 C.3     1  UNL1        0.0048
     28 C         142.6812  139.5243  167.0193 C.3     1  UNL1        0.0174
     29 C         142.3735  140.4070  168.1926 C.3     1  UNL1        0.0720
     30 N         141.0285  141.0611  168.3067 N.3     1  UNL1       -0.2739
     31 C         139.9911  140.8326  167.2476 C.3     1  UNL1        0.0739
     32 C         140.7209  141.9437  169.4800 C.3     1  UNL1        0.0576
     33 C         140.6937  141.3680  170.8647 C.3     1  UNL1        0.0173
     34 C         140.4404  143.4020  169.2682 C.3     1  UNL1        0.0173
@<TRIPOS>BOND
     1    11    12    1
     2    12    13   ar
     3    13    14   ar
     4    14    15   ar
     5    15    16   ar
     6    16    17   ar
     7    17     1    1
     8     1     2   ar
     9     2     3   ar
    10     3     4   ar
    11     4     5   ar
    12     5    18    1
    13    18    19   ar
    14    19    20   ar
    15    20    21   ar
    16    21    22    1
    17    21    23   ar
    18    23    24   ar
    19     5     6   ar
    20     6     7   ar
    21     7     8   ar
    22     8     9    2
    23     8    10   ar
    24    10    25    1
    25    25    26    1
    26    26    27    1
    27    27    28    1
    28    28    29    1
    29    29    30    1
    30    30    32    1
    31    32    33    1
    32    32    34    1
    33    30    31    1
    34    17    12   ar
    35    10     1   ar
    36    31    26    1
    37     7     3   ar
    38    24    18   ar
@<TRIPOS>MOLECULE
*****
 34 38 0 0 0
SMALL
GASTEIGER

@<TRIPOS>ATOM
      1 C         141.6126  143.0974  162.6717 C.ar    1  UNL1        0.1458
      2 N         141.6757  143.1866  161.1756 N.ar    1  UNL1       -0.2249
      3 C         142.9490  142.8506  160.4574 C.ar    1  UNL1        0.1260
      4 C         143.3089  142.8465  159.0012 C.ar    1  UNL1        0.1212
      5 N         144.7414  142.4187  158.8791 N.ar    1  UNL1       -0.2265
      6 N         145.2668  142.1584  160.2597 N.ar    1  UNL1       -0.1586
      7 C         144.1590  142.4253  161.2352 C.ar    1  UNL1        0.1762
      8 C         144.0958  142.3361  162.7312 C.ar    1  UNL1        0.2829
      9 O         145.3059  141.9109  163.5090 O.2     1  UNL1       -0.2652
     10 N         142.8225  142.6722  163.4494 N.ar    1  UNL1       -0.2793
     11 C         139.2473  141.2631  162.4694 C.3     1  UNL1        0.0311
     12 C         139.1566  142.5163  163.2888 C.ar    1  UNL1       -0.0189
     13 C         137.8833  142.8524  164.0070 C.ar    1  UNL1       -0.0042
     14 C         137.7927  144.1056  164.8264 C.ar    1  UNL1       -0.0003
     15 C         138.9753  145.0227  164.9275 C.ar    1  UNL1        0.0001
     16 C         140.2486  144.6866  164.2093 C.ar    1  UNL1        0.0027
     17 C         140.3392  143.4335  163.3899 C.ar    1  UNL1        0.0303
     18 C         145.5130  142.2762  157.6007 C.ar    1  UNL1        0.0831
     19 C         146.8835  142.8741  157.4812 C.ar    1  UNL1        0.0215
     20 C         147.6551  142.7315  156.2028 C.ar    1  UNL1        0.0312
     21 C         147.0563  141.9911  155.0438 C.ar    1  UNL1        0.1402
     22 F         147.8279  141.8486  153.7654 F       1  UNL1       -0.2042
     23 C         145.6858  141.3931  155.1633 C.ar    1  UNL1        0.0312
     24 C         144.9142  141.5357  156.4417 C.ar    1  UNL1        0.0215
     25 C         142.7594  142.5829  164.9455 C.3     1  UNL1        0.1119
     26 C         141.7672  141.6689  165.6010 C.3     1  UNL1        0.0388
     27 C         141.0410  142.1123  166.8364 C.3     1  UNL1        0.0048
     28 C         140.0488  141.1982  167.4920 C.3     1  UNL1        0.0174
     29 C         139.7828  139.8405  166.9123 C.3     1  UNL1        0.0720
     30 N         140.5090  139.3970  165.6770 N.3     1  UNL1       -0.2739
     31 C         141.5012  140.3112  165.0214 C.3     1  UNL1        0.0739
     32 C         140.2430  138.0393  165.0974 C.3     1  UNL1        0.0576
     33 C         141.3591  137.2618  164.4654 C.3     1  UNL1        0.0173
     34 C         138.8606  137.4592  165.1499 C.3     1  UNL1        0.0173
@<TRIPOS>BOND
     1    11    12    1
     2    12    13   ar
     3    13    14   ar
     4    14    15   ar
     5    15    16   ar
     6    16    17   ar
     7    17     1    1
     8     1     2   ar
     9     2     3   ar
    10     3     4   ar
    11     4     5   ar
    12     5    18    1
    13    18    19   ar
    14    19    20   ar
    15    20    21   ar
    16    21    22    1
    17    21    23   ar
    18    23    24   ar
    19     5     6   ar
    20     6     7   ar
    21     7     8   ar
    22     8     9    2
    23     8    10   ar
    24    10    25    1
    25    25    26    1
    26    26    27    1
    27    27    28    1
    28    28    29    1
    29    29    30    1
    30    30    32    1
    31    32    33    1
    32    32    34    1
    33    30    31    1
    34    17    12   ar
    35    10     1   ar
    36    31    26    1
    37     7     3   ar
    38    24    18   ar
