@<TRIPOS>MOLECULE
*****
 33 36 0 0 0
SMALL
GASTEIGER

@<TRIPOS>ATOM
      1 N         140.6444  146.1110  162.2716 N.3     1  UNL1       -0.2863
      2 H         141.5142  146.5605  161.9854 H       1  UNL1        0.1240
      3 C         143.4118  142.7799  165.2925 C.2     1  UNL1        0.2567
      4 O         144.8011  142.9509  164.7533 O.2     1  UNL1       -0.2694
      5 N         142.2768  143.5637  164.7030 N.am    1  UNL1       -0.2252
      6 C         140.8420  143.4986  165.1354 C.3     1  UNL1        0.1031
      7 C         140.0558  144.4449  164.2772 C.3     1  UNL1        0.0471
      8 C         141.0048  145.0949  163.3144 C.3     1  UNL1        0.1341
      9 C         142.3774  144.5502  163.5775 C.2     1  UNL1        0.2459
     10 O         143.6307  144.9262  162.8440 O.2     1  UNL1       -0.2730
     11 C         142.9192  140.3720  166.1349 C.ar    1  UNL1        0.1111
     12 N         142.6649  139.4172  167.2634 N.ar    1  UNL1       -0.2375
     13 C         142.6488  139.9155  168.6782 C.ar    1  UNL1        0.0994
     14 C         142.8870  141.3685  168.9643 C.ar    1  UNL1        0.0209
     15 C         143.1414  142.3233  167.8358 C.ar    1  UNL1        0.0081
     16 C         143.1575  141.8251  166.4210 C.ar    1  UNL1        0.0775
     17 C         144.1810  139.2570  164.1563 C.3     1  UNL1        0.0757
     18 S         142.9353  139.8738  164.7201 S.3     1  UNL1       -0.0939
     19 C         139.9454  145.6815  161.0158 C.3     1  UNL1        0.1151
     20 C         140.5086  144.5641  160.1887 C.ar    1  UNL1        0.0739
     21 C         141.8277  144.5741  159.4745 C.ar    1  UNL1        0.1147
     22 N         141.9860  143.2567  158.7749 N.ar    1  UNL1       -0.2226
     23 C         140.7648  142.4325  159.0568 C.ar    1  UNL1        0.1786
     24 N         139.8518  143.2405  159.9306 N.ar    1  UNL1       -0.3070
     25 C         138.5163  142.8019  160.4543 C.3     1  UNL1        0.1340
     26 C         138.4318  142.0181  161.7303 C.ar    1  UNL1        0.0005
     27 C         137.5811  142.5157  162.8611 C.ar    1  UNL1       -0.0017
     28 C         137.4965  141.7320  164.1373 C.ar    1  UNL1        0.0100
     29 C         138.2626  140.4506  164.2827 C.ar    1  UNL1        0.0684
     30 C         139.1133  139.9530  163.1519 C.ar    1  UNL1        0.0100
     31 C         139.1978  140.7368  161.8757 C.ar    1  UNL1       -0.0017
     32 C         138.1780  139.6668  165.5588 C.1     1  UNL1        0.1004
     33 N         138.0934  138.8831  166.8350 N.1     1  UNL1       -0.1908
@<TRIPOS>BOND
     1    17    18    1
     2    18    11    1
     3    11    12   ar
     4    12    13   ar
     5    13    14   ar
     6    14    15   ar
     7    15    16   ar
     8    16     3    1
     9     3     4    2
    10     3     5   am
    11     5     6    1
    12     6     7    1
    13     7     8    1
    14     8     1    1
    15     1    19    1
    16    19    20    1
    17    20    21   ar
    18    21    22   ar
    19    22    23   ar
    20    23    24   ar
    21    24    25    1
    22    25    26    1
    23    26    27   ar
    24    27    28   ar
    25    28    29   ar
    26    29    32    1
    27    32    33    3
    28    29    30   ar
    29    30    31   ar
    30     8     9    1
    31     9    10    2
    32    16    11   ar
    33     9     5   am
    34    24    20   ar
    35    31    26   ar
    36     1     2    1
@<TRIPOS>MOLECULE
*****
 33 36 0 0 0
SMALL
GASTEIGER

@<TRIPOS>ATOM
      1 N         141.0604  145.6660  162.8586 N.3     1  UNL1       -0.2863
      2 H         141.8935  145.2704  162.4230 H       1  UNL1        0.1240
      3 C         141.4216  142.1654  166.7951 C.2     1  UNL1        0.2567
      4 O         142.8769  141.8034  166.7579 O.2     1  UNL1       -0.2694
      5 N         140.8710  143.1602  165.8167 N.am    1  UNL1       -0.2252
      6 C         139.4452  143.6184  165.7332 C.3     1  UNL1        0.1031
      7 C         139.3425  144.6129  164.6150 C.3     1  UNL1        0.0471
      8 C         140.7049  144.7693  164.0073 C.3     1  UNL1        0.1341
      9 C         141.6496  143.8715  164.7500 C.2     1  UNL1        0.2459
     10 O         143.1155  143.7128  164.4743 O.2     1  UNL1       -0.2730
     11 C         140.4440  142.0904  169.2010 C.ar    1  UNL1        0.1111
     12 N         139.5394  141.4576  170.2165 N.ar    1  UNL1       -0.2375
     13 C         138.7079  140.2668  169.8415 C.ar    1  UNL1        0.0994
     14 C         138.7809  139.7089  168.4511 C.ar    1  UNL1        0.0209
     15 C         139.6855  140.3418  167.4355 C.ar    1  UNL1        0.0081
     16 C         140.5171  141.5325  167.8105 C.ar    1  UNL1        0.0775
     17 C         142.5794  143.0898  170.2924 C.3     1  UNL1        0.0757
     18 S         141.2756  143.2812  169.5760 S.3     1  UNL1       -0.0939
     19 C         140.0686  145.9048  161.7588 C.3     1  UNL1        0.1151
     20 C         140.1994  145.1690  160.4582 C.ar    1  UNL1        0.0739
     21 C         140.8803  145.6776  159.2222 C.ar    1  UNL1        0.1147
     22 N         140.7740  144.6184  158.1653 N.ar    1  UNL1       -0.2226
     23 C         140.0274  143.4553  158.7482 C.ar    1  UNL1        0.1786
     24 N         139.6723  143.7956  160.1653 N.ar    1  UNL1       -0.3070
     25 C         138.9219  142.9167  161.1216 C.3     1  UNL1        0.1340
     26 C         139.6673  141.9568  162.0007 C.ar    1  UNL1        0.0005
     27 C         138.9308  141.1651  163.0403 C.ar    1  UNL1       -0.0017
     28 C         139.6762  140.2051  163.9195 C.ar    1  UNL1        0.0100
     29 C         141.1580  140.0368  163.7590 C.ar    1  UNL1        0.0684
     30 C         141.8945  140.8285  162.7193 C.ar    1  UNL1        0.0100
     31 C         141.1491  141.7884  161.8402 C.ar    1  UNL1       -0.0017
     32 C         141.9034  139.0768  164.6381 C.1     1  UNL1        0.1004
     33 N         142.6488  138.1168  165.5173 N.1     1  UNL1       -0.1908
@<TRIPOS>BOND
     1    17    18    1
     2    18    11    1
     3    11    12   ar
     4    12    13   ar
     5    13    14   ar
     6    14    15   ar
     7    15    16   ar
     8    16     3    1
     9     3     4    2
    10     3     5   am
    11     5     6    1
    12     6     7    1
    13     7     8    1
    14     8     1    1
    15     1    19    1
    16    19    20    1
    17    20    21   ar
    18    21    22   ar
    19    22    23   ar
    20    23    24   ar
    21    24    25    1
    22    25    26    1
    23    26    27   ar
    24    27    28   ar
    25    28    29   ar
    26    29    32    1
    27    32    33    3
    28    29    30   ar
    29    30    31   ar
    30     8     9    1
    31     9    10    2
    32    16    11   ar
    33     9     5   am
    34    24    20   ar
    35    31    26   ar
    36     1     2    1
@<TRIPOS>MOLECULE
*****
 33 36 0 0 0
SMALL
GASTEIGER

@<TRIPOS>ATOM
      1 N         145.5942  141.9642  162.4979 N.3     1  UNL1       -0.2863
      2 H         146.0767  141.1012  162.2470 H       1  UNL1        0.1240
      3 C         142.7542  139.3360  166.0906 C.2     1  UNL1        0.2567
      4 O         142.8621  137.9225  165.6002 O.2     1  UNL1       -0.2694
      5 N         143.4345  140.4436  165.3419 N.am    1  UNL1       -0.2252
      6 C         143.4158  141.8977  165.7096 C.3     1  UNL1        0.1031
      7 C         144.2226  142.6443  164.6890 C.3     1  UNL1        0.0471
      8 C         144.7399  141.6516  163.6905 C.3     1  UNL1        0.1341
      9 C         144.2528  140.2915  164.0940 C.2     1  UNL1        0.2459
     10 O         144.5345  139.0052  163.3757 O.2     1  UNL1       -0.2730
     11 C         140.5054  139.9674  167.2282 C.ar    1  UNL1        0.1111
     12 N         139.7173  140.2733  168.4673 N.ar    1  UNL1       -0.2375
     13 C         140.3900  140.2536  169.8079 C.ar    1  UNL1        0.0994
     14 C         141.8507  139.9280  169.9094 C.ar    1  UNL1        0.0209
     15 C         142.6388  139.6221  168.6703 C.ar    1  UNL1        0.0081
     16 C         141.9662  139.6418  167.3297 C.ar    1  UNL1        0.0775
     17 C         139.6590  141.2843  165.1547 C.3     1  UNL1        0.0757
     18 S         139.8328  139.9871  165.8877 S.3     1  UNL1       -0.0939
     19 C         144.9651  142.4895  161.2416 C.3     1  UNL1        0.1151
     20 C         143.8964  141.6963  160.5497 C.ar    1  UNL1        0.0739
     21 C         143.9782  140.2462  160.1745 C.ar    1  UNL1        0.1147
     22 N         142.6907  139.8675  159.5043 N.ar    1  UNL1       -0.2226
     23 C         141.8133  141.0835  159.4654 C.ar    1  UNL1        0.1786
     24 N         142.5585  142.2138  160.1114 N.ar    1  UNL1       -0.3070
     25 C         142.0542  143.6153  160.2881 C.3     1  UNL1        0.1340
     26 C         141.2507  143.9758  161.5023 C.ar    1  UNL1        0.0005
     27 C         141.9088  144.6682  162.6588 C.ar    1  UNL1       -0.0017
     28 C         141.1053  145.0286  163.8731 C.ar    1  UNL1        0.0100
     29 C         139.6436  144.6967  163.9309 C.ar    1  UNL1        0.0684
     30 C         138.9855  144.0043  162.7744 C.ar    1  UNL1        0.0100
     31 C         139.7891  143.6439  161.5601 C.ar    1  UNL1       -0.0017
     32 C         138.8401  145.0572  165.1452 C.1     1  UNL1        0.1004
     33 N         138.0366  145.4176  166.3594 N.1     1  UNL1       -0.1908
@<TRIPOS>BOND
     1    17    18    1
     2    18    11    1
     3    11    12   ar
     4    12    13   ar
     5    13    14   ar
     6    14    15   ar
     7    15    16   ar
     8    16     3    1
     9     3     4    2
    10     3     5   am
    11     5     6    1
    12     6     7    1
    13     7     8    1
    14     8     1    1
    15     1    19    1
    16    19    20    1
    17    20    21   ar
    18    21    22   ar
    19    22    23   ar
    20    23    24   ar
    21    24    25    1
    22    25    26    1
    23    26    27   ar
    24    27    28   ar
    25    28    29   ar
    26    29    32    1
    27    32    33    3
    28    29    30   ar
    29    30    31   ar
    30     8     9    1
    31     9    10    2
    32    16    11   ar
    33     9     5   am
    34    24    20   ar
    35    31    26   ar
    36     1     2    1
@<TRIPOS>MOLECULE
*****
 33 36 0 0 0
SMALL
GASTEIGER

@<TRIPOS>ATOM
      1 N         145.1375  140.5600  162.4961 N.3     1  UNL1       -0.2863
      2 H         145.7429  139.7827  162.7602 H       1  UNL1        0.1240
      3 C         142.7054  140.6450  167.1821 C.2     1  UNL1        0.2567
      4 O         142.5528  139.1829  167.4808 O.2     1  UNL1       -0.2694
      5 N         143.3653  141.0855  165.9091 N.am    1  UNL1       -0.2252
      6 C         143.5875  142.5044  165.4764 C.3     1  UNL1        0.1031
      7 C         144.2784  142.4803  164.1452 C.3     1  UNL1        0.0471
      8 C         144.4833  141.0464  163.7552 C.3     1  UNL1        0.1341
      9 C         143.9189  140.1844  164.8453 C.2     1  UNL1        0.2459
     10 O         143.9098  138.6846  164.8678 O.2     1  UNL1       -0.2730
     11 C         140.8340  142.2636  167.9747 C.ar    1  UNL1        0.1111
     12 N         140.3267  143.2851  168.9489 N.ar    1  UNL1       -0.2375
     13 C         141.1833  143.7094  170.1048 C.ar    1  UNL1        0.0994
     14 C         142.5473  143.1123  170.2865 C.ar    1  UNL1        0.0209
     15 C         143.0547  142.0908  169.3122 C.ar    1  UNL1        0.0081
     16 C         142.1981  141.6664  168.1563 C.ar    1  UNL1        0.0775
     17 C         139.7843  142.7600  165.6505 C.3     1  UNL1        0.0757
     18 S         139.9774  141.8392  166.8188 S.3     1  UNL1       -0.0939
     19 C         144.2960  140.0832  161.3495 C.3     1  UNL1        0.1151
     20 C         143.1106  140.8872  160.9041 C.ar    1  UNL1        0.0739
     21 C         143.1390  142.3086  160.4254 C.ar    1  UNL1        0.1147
     22 N         141.7346  142.7109  160.0845 N.ar    1  UNL1       -0.2226
     23 C         140.8385  141.5382  160.3526 C.ar    1  UNL1        0.1786
     24 N         141.6889  140.4112  160.8591 N.ar    1  UNL1       -0.3070
     25 C         141.2029  139.0475  161.2517 C.3     1  UNL1        0.1340
     26 C         140.4067  138.8686  162.5102 C.ar    1  UNL1        0.0005
     27 C         140.7909  137.8054  163.4960 C.ar    1  UNL1       -0.0017
     28 C         139.9946  137.6265  164.7546 C.ar    1  UNL1        0.0100
     29 C         138.8141  138.5108  165.0273 C.ar    1  UNL1        0.0684
     30 C         138.4299  139.5740  164.0414 C.ar    1  UNL1        0.0100
     31 C         139.2262  139.7529  162.7828 C.ar    1  UNL1       -0.0017
     32 C         138.0179  138.3319  166.2859 C.1     1  UNL1        0.1004
     33 N         137.2216  138.1530  167.5444 N.1     1  UNL1       -0.1908
@<TRIPOS>BOND
     1    17    18    1
     2    18    11    1
     3    11    12   ar
     4    12    13   ar
     5    13    14   ar
     6    14    15   ar
     7    15    16   ar
     8    16     3    1
     9     3     4    2
    10     3     5   am
    11     5     6    1
    12     6     7    1
    13     7     8    1
    14     8     1    1
    15     1    19    1
    16    19    20    1
    17    20    21   ar
    18    21    22   ar
    19    22    23   ar
    20    23    24   ar
    21    24    25    1
    22    25    26    1
    23    26    27   ar
    24    27    28   ar
    25    28    29   ar
    26    29    32    1
    27    32    33    3
    28    29    30   ar
    29    30    31   ar
    30     8     9    1
    31     9    10    2
    32    16    11   ar
    33     9     5   am
    34    24    20   ar
    35    31    26   ar
    36     1     2    1
@<TRIPOS>MOLECULE
*****
 33 36 0 0 0
SMALL
GASTEIGER

@<TRIPOS>ATOM
      1 N         138.6713  139.8839  165.7932 N.3     1  UNL1       -0.2863
      2 H         138.0897  139.0662  165.6104 H       1  UNL1        0.1240
      3 C         139.2853  142.1862  161.0812 C.2     1  UNL1        0.2567
      4 O         138.0066  142.9580  160.9422 O.2     1  UNL1       -0.2694
      5 N         139.5348  141.3633  162.3102 N.am    1  UNL1       -0.2252
      6 C         140.7594  140.5430  162.5884 C.3     1  UNL1        0.1031
      7 C         140.5850  139.8890  163.9270 C.3     1  UNL1        0.0471
      8 C         139.2526  140.3051  164.4761 C.3     1  UNL1        0.1341
      9 C         138.6036  141.2163  163.4769 C.2     1  UNL1        0.2459
     10 O         137.2592  141.8663  163.6193 O.2     1  UNL1       -0.2730
     11 C         140.3025  141.2084  158.8996 C.ar    1  UNL1        0.1111
     12 N         141.3316  141.2595  157.8095 N.ar    1  UNL1       -0.2375
     13 C         142.3726  142.3395  157.8109 C.ar    1  UNL1        0.0994
     14 C         142.3845  143.3684  158.9023 C.ar    1  UNL1        0.0209
     15 C         141.3554  143.3173  159.9925 C.ar    1  UNL1        0.0081
     16 C         140.3144  142.2373  159.9911 C.ar    1  UNL1        0.0775
     17 C         139.6378  138.7245  158.5278 C.3     1  UNL1        0.0757
     18 S         139.2615  140.1285  158.8982 S.3     1  UNL1       -0.0939
     19 C         139.5782  139.5243  166.9326 C.3     1  UNL1        0.1151
     20 C         139.7086  140.4476  168.1075 C.ar    1  UNL1        0.0739
     21 C         138.9221  140.3687  169.3824 C.ar    1  UNL1        0.1147
     22 N         139.3759  141.4843  170.2767 N.ar    1  UNL1       -0.2226
     23 C         140.4428  142.2526  169.5545 C.ar    1  UNL1        0.1786
     24 N         140.6484  141.6119  168.2138 N.ar    1  UNL1       -0.3070
     25 C         141.6227  142.0572  167.1640 C.3     1  UNL1        0.1340
     26 C         141.1597  142.9229  166.0300 C.ar    1  UNL1        0.0005
     27 C         142.0557  143.1558  164.8498 C.ar    1  UNL1       -0.0017
     28 C         141.5926  144.0215  163.7157 C.ar    1  UNL1        0.0100
     29 C         140.2335  144.6544  163.7618 C.ar    1  UNL1        0.0684
     30 C         139.3375  144.4216  164.9420 C.ar    1  UNL1        0.0100
     31 C         139.8005  143.5558  166.0761 C.ar    1  UNL1       -0.0017
     32 C         139.7704  145.5202  162.6278 C.1     1  UNL1        0.1004
     33 N         139.3074  146.3859  161.4937 N.1     1  UNL1       -0.1908
@<TRIPOS>BOND
     1    17    18    1
     2    18    11    1
     3    11    12   ar
     4    12    13   ar
     5    13    14   ar
     6    14    15   ar
     7    15    16   ar
     8    16     3    1
     9     3     4    2
    10     3     5   am
    11     5     6    1
    12     6     7    1
    13     7     8    1
    14     8     1    1
    15     1    19    1
    16    19    20    1
    17    20    21   ar
    18    21    22   ar
    19    22    23   ar
    20    23    24   ar
    21    24    25    1
    22    25    26    1
    23    26    27   ar
    24    27    28   ar
    25    28    29   ar
    26    29    32    1
    27    32    33    3
    28    29    30   ar
    29    30    31   ar
    30     8     9    1
    31     9    10    2
    32    16    11   ar
    33     9     5   am
    34    24    20   ar
    35    31    26   ar
    36     1     2    1
@<TRIPOS>MOLECULE
*****
 33 36 0 0 0
SMALL
GASTEIGER

@<TRIPOS>ATOM
      1 N         142.8524  145.0923  162.5206 N.3     1  UNL1       -0.2863
      2 H         142.2431  145.3613  163.2931 H       1  UNL1        0.1240
      3 C         138.7340  142.6862  160.2556 C.2     1  UNL1        0.2567
      4 O         137.6576  142.8775  161.2826 O.2     1  UNL1       -0.2694
      5 N         140.1099  143.2310  160.5008 N.am    1  UNL1       -0.2252
      6 C         141.2816  143.1181  159.5710 C.3     1  UNL1        0.1031
      7 C         142.4515  143.8016  160.2145 C.3     1  UNL1        0.0471
      8 C         142.0030  144.3370  161.5419 C.3     1  UNL1        0.1341
      9 C         140.5558  143.9843  161.7189 C.2     1  UNL1        0.2459
     10 O         139.7040  144.3252  162.9056 O.2     1  UNL1       -0.2730
     11 C         138.5427  140.4547  158.9388 C.ar    1  UNL1        0.1111
     12 N         138.2432  139.7187  157.6666 N.ar    1  UNL1       -0.2375
     13 C         137.8355  140.4781  156.4389 C.ar    1  UNL1        0.0994
     14 C         137.7273  141.9735  156.4835 C.ar    1  UNL1        0.0209
     15 C         138.0268  142.7096  157.7557 C.ar    1  UNL1        0.0081
     16 C         138.4345  141.9502  158.9834 C.ar    1  UNL1        0.0775
     17 C         137.9060  139.1904  161.1173 C.3     1  UNL1        0.0757
     18 S         138.9504  139.6954  160.1664 S.3     1  UNL1       -0.0939
     19 C         144.0584  144.4389  163.1276 C.3     1  UNL1        0.1151
     20 C         144.1203  142.9452  163.2500 C.ar    1  UNL1        0.0739
     21 C         145.0968  142.0434  162.5548 C.ar    1  UNL1        0.1147
     22 N         144.7965  140.6318  162.9643 N.ar    1  UNL1       -0.2226
     23 C         143.6346  140.6614  163.9125 C.ar    1  UNL1        0.1786
     24 N         143.2166  142.0912  164.0891 N.ar    1  UNL1       -0.3070
     25 C         142.0925  142.5808  164.9530 C.3     1  UNL1        0.1340
     26 C         141.0563  141.6182  165.4525 C.ar    1  UNL1        0.0005
     27 C         141.0920  141.1504  166.8772 C.ar    1  UNL1       -0.0017
     28 C         140.0558  140.1877  167.3767 C.ar    1  UNL1        0.0100
     29 C         138.9839  139.6927  166.4515 C.ar    1  UNL1        0.0684
     30 C         138.9483  140.1605  165.0267 C.ar    1  UNL1        0.0100
     31 C         139.9845  141.1232  164.5272 C.ar    1  UNL1       -0.0017
     32 C         137.9477  138.7300  166.9510 C.1     1  UNL1        0.1004
     33 N         136.9115  137.7673  167.4505 N.1     1  UNL1       -0.1908
@<TRIPOS>BOND
     1    17    18    1
     2    18    11    1
     3    11    12   ar
     4    12    13   ar
     5    13    14   ar
     6    14    15   ar
     7    15    16   ar
     8    16     3    1
     9     3     4    2
    10     3     5   am
    11     5     6    1
    12     6     7    1
    13     7     8    1
    14     8     1    1
    15     1    19    1
    16    19    20    1
    17    20    21   ar
    18    21    22   ar
    19    22    23   ar
    20    23    24   ar
    21    24    25    1
    22    25    26    1
    23    26    27   ar
    24    27    28   ar
    25    28    29   ar
    26    29    32    1
    27    32    33    3
    28    29    30   ar
    29    30    31   ar
    30     8     9    1
    31     9    10    2
    32    16    11   ar
    33     9     5   am
    34    24    20   ar
    35    31    26   ar
    36     1     2    1
@<TRIPOS>MOLECULE
*****
 33 36 0 0 0
SMALL
GASTEIGER

@<TRIPOS>ATOM
      1 N         144.2482  144.0081  162.6543 N.3     1  UNL1       -0.2863
      2 H         145.1619  144.3353  162.9680 H       1  UNL1        0.1240
      3 C         140.4076  142.6596  166.0177 C.2     1  UNL1        0.2567
      4 O         139.1745  143.0259  165.2460 O.2     1  UNL1       -0.2694
      5 N         141.7631  142.8831  165.4155 N.am    1  UNL1       -0.2252
      6 C         143.0786  142.5680  166.0636 C.3     1  UNL1        0.1031
      7 C         144.1697  142.9510  165.1082 C.3     1  UNL1        0.0471
      8 C         143.5285  143.5029  163.8695 C.3     1  UNL1        0.1341
      9 C         142.0411  143.4609  164.0595 C.2     1  UNL1        0.2459
     10 O         141.0124  143.9168  163.0675 O.2     1  UNL1       -0.2730
     11 C         139.7969  140.6620  167.5625 C.ar    1  UNL1        0.1111
     12 N         139.6745  140.0723  168.9363 N.ar    1  UNL1       -0.2375
     13 C         140.0402  140.8906  170.1390 C.ar    1  UNL1        0.0994
     14 C         140.5284  142.2985  169.9680 C.ar    1  UNL1        0.0209
     15 C         140.6509  142.8883  168.5942 C.ar    1  UNL1        0.0081
     16 C         140.2851  142.0700  167.3915 C.ar    1  UNL1        0.0775
     17 C         138.2215  138.9575  166.3952 C.3     1  UNL1        0.0757
     18 S         139.4312  139.8437  166.3598 S.3     1  UNL1       -0.0939
     19 C         144.4919  143.0917  161.4920 C.3     1  UNL1        0.1151
     20 C         143.3471  142.6602  160.6242 C.ar    1  UNL1        0.0739
     21 C         142.4213  143.5683  159.8702 C.ar    1  UNL1        0.1147
     22 N         141.4290  142.7142  159.1379 N.ar    1  UNL1       -0.2226
     23 C         141.7417  141.2785  159.4394 C.ar    1  UNL1        0.1786
     24 N         142.9271  141.2451  160.3579 N.ar    1  UNL1       -0.3070
     25 C         143.5781  140.0129  160.9127 C.3     1  UNL1        0.1340
     26 C         143.5097  139.7259  162.3833 C.ar    1  UNL1        0.0005
     27 C         142.1954  139.3842  163.0205 C.ar    1  UNL1       -0.0017
     28 C         142.1270  139.0972  164.4912 C.ar    1  UNL1        0.0100
     29 C         143.3728  139.1520  165.3248 C.ar    1  UNL1        0.0684
     30 C         144.6871  139.4937  164.6877 C.ar    1  UNL1        0.0100
     31 C         144.7555  139.7807  163.2169 C.ar    1  UNL1       -0.0017
     32 C         143.3043  138.8650  166.7955 C.1     1  UNL1        0.1004
     33 N         143.2359  138.5781  168.2662 N.1     1  UNL1       -0.1908
@<TRIPOS>BOND
     1    17    18    1
     2    18    11    1
     3    11    12   ar
     4    12    13   ar
     5    13    14   ar
     6    14    15   ar
     7    15    16   ar
     8    16     3    1
     9     3     4    2
    10     3     5   am
    11     5     6    1
    12     6     7    1
    13     7     8    1
    14     8     1    1
    15     1    19    1
    16    19    20    1
    17    20    21   ar
    18    21    22   ar
    19    22    23   ar
    20    23    24   ar
    21    24    25    1
    22    25    26    1
    23    26    27   ar
    24    27    28   ar
    25    28    29   ar
    26    29    32    1
    27    32    33    3
    28    29    30   ar
    29    30    31   ar
    30     8     9    1
    31     9    10    2
    32    16    11   ar
    33     9     5   am
    34    24    20   ar
    35    31    26   ar
    36     1     2    1
@<TRIPOS>MOLECULE
*****
 33 36 0 0 0
SMALL
GASTEIGER

@<TRIPOS>ATOM
      1 N         143.5872  138.9625  164.2283 N.3     1  UNL1       -0.2863
      2 H         144.4009  139.3554  164.7016 H       1  UNL1        0.1240
      3 C         142.9680  143.5604  161.7070 C.2     1  UNL1        0.2567
      4 O         144.0305  144.4090  162.3403 O.2     1  UNL1       -0.2694
      5 N         142.7881  142.1359  162.1410 N.am    1  UNL1       -0.2252
      6 C         141.7738  141.1713  161.6018 C.3     1  UNL1        0.1031
      7 C         141.9497  139.8651  162.3180 C.3     1  UNL1        0.0471
      8 C         143.0727  140.0225  163.2999 C.3     1  UNL1        0.1341
      9 C         143.5908  141.4259  163.1905 C.2     1  UNL1        0.2459
     10 O         144.7144  142.0157  163.9903 O.2     1  UNL1       -0.2730
     11 C         140.8593  144.9130  161.0185 C.ar    1  UNL1        0.1111
     12 N         139.9767  145.4890  159.9512 N.ar    1  UNL1       -0.2375
     13 C         140.3202  145.2885  158.5049 C.ar    1  UNL1        0.0994
     14 C         141.5463  144.5119  158.1260 C.ar    1  UNL1        0.0209
     15 C         142.4290  143.9359  159.1933 C.ar    1  UNL1        0.0081
     16 C         142.0854  144.1364  160.6396 C.ar    1  UNL1        0.0775
     17 C         139.1117  144.8853  162.9408 C.3     1  UNL1        0.0757
     18 S         140.5157  145.1136  162.4648 S.3     1  UNL1       -0.0939
     19 C         142.6942  138.4022  165.2953 C.3     1  UNL1        0.1151
     20 C         141.9066  139.3266  166.1758 C.ar    1  UNL1        0.0739
     21 C         142.4752  140.3741  167.0865 C.ar    1  UNL1        0.1147
     22 N         141.3321  141.0607  167.7738 N.ar    1  UNL1       -0.2226
     23 C         140.0573  140.4374  167.2878 C.ar    1  UNL1        0.1786
     24 N         140.4123  139.3657  166.3002 N.ar    1  UNL1       -0.3070
     25 C         139.4431  138.4873  165.5659 C.3     1  UNL1        0.1340
     26 C         139.0222  138.8382  164.1696 C.ar    1  UNL1        0.0005
     27 C         138.5589  140.2293  163.8532 C.ar    1  UNL1       -0.0017
     28 C         138.1380  140.5803  162.4569 C.ar    1  UNL1        0.0100
     29 C         138.1803  139.5401  161.3770 C.ar    1  UNL1        0.0684
     30 C         138.6436  138.1490  161.6934 C.ar    1  UNL1        0.0100
     31 C         139.0646  137.7980  163.0897 C.ar    1  UNL1       -0.0017
     32 C         137.7594  139.8910  159.9807 C.1     1  UNL1        0.1004
     33 N         137.3385  140.2420  158.5844 N.1     1  UNL1       -0.1908
@<TRIPOS>BOND
     1    17    18    1
     2    18    11    1
     3    11    12   ar
     4    12    13   ar
     5    13    14   ar
     6    14    15   ar
     7    15    16   ar
     8    16     3    1
     9     3     4    2
    10     3     5   am
    11     5     6    1
    12     6     7    1
    13     7     8    1
    14     8     1    1
    15     1    19    1
    16    19    20    1
    17    20    21   ar
    18    21    22   ar
    19    22    23   ar
    20    23    24   ar
    21    24    25    1
    22    25    26    1
    23    26    27   ar
    24    27    28   ar
    25    28    29   ar
    26    29    32    1
    27    32    33    3
    28    29    30   ar
    29    30    31   ar
    30     8     9    1
    31     9    10    2
    32    16    11   ar
    33     9     5   am
    34    24    20   ar
    35    31    26   ar
    36     1     2    1
@<TRIPOS>MOLECULE
*****
 33 36 0 0 0
SMALL
GASTEIGER

@<TRIPOS>ATOM
      1 N         144.2184  141.1504  162.5201 N.3     1  UNL1       -0.2863
      2 H         145.0297  140.5415  162.6271 H       1  UNL1        0.1240
      3 C         142.6984  140.1292  167.4726 C.2     1  UNL1        0.2567
      4 O         143.2752  138.7634  167.7005 O.2     1  UNL1       -0.2694
      5 N         142.8985  140.8176  166.1550 N.am    1  UNL1       -0.2252
      6 C         142.3839  142.1765  165.7830 C.3     1  UNL1        0.1031
      7 C         142.8157  142.4667  164.3761 C.3     1  UNL1        0.0471
      8 C         143.5972  141.2870  163.8785 C.3     1  UNL1        0.1341
      9 C         143.6483  140.2678  164.9779 C.2     1  UNL1        0.2459
     10 O         144.3298  138.9332  164.9118 O.2     1  UNL1       -0.2730
     11 C         140.4220  140.8060  168.5261 C.ar    1  UNL1        0.1111
     12 N         139.6451  141.4834  169.6158 N.ar    1  UNL1       -0.2375
     13 C         140.3678  142.1615  170.7418 C.ar    1  UNL1        0.0994
     14 C         141.8674  142.1622  170.7781 C.ar    1  UNL1        0.0209
     15 C         142.6443  141.4848  169.6883 C.ar    1  UNL1        0.0081
     16 C         141.9216  140.8067  168.5623 C.ar    1  UNL1        0.0775
     17 C         138.4845  139.2945  167.6825 C.3     1  UNL1        0.0757
     18 S         139.6993  140.1279  167.4001 S.3     1  UNL1       -0.0939
     19 C         143.4135  140.6028  161.3789 C.3     1  UNL1        0.1151
     20 C         142.4014  139.5235  161.6250 C.ar    1  UNL1        0.0739
     21 C         142.7008  138.1071  162.0177 C.ar    1  UNL1        0.1147
     22 N         141.3965  137.3792  162.1570 N.ar    1  UNL1       -0.2226
     23 C         140.2912  138.3458  161.8503 C.ar    1  UNL1        0.1786
     24 N         140.9122  139.6710  161.5215 N.ar    1  UNL1       -0.3070
     25 C         140.1737  140.9238  161.1539 C.3     1  UNL1        0.1340
     26 C         139.7441  141.8826  162.2243 C.ar    1  UNL1        0.0005
     27 C         140.0292  143.3479  162.0771 C.ar    1  UNL1       -0.0017
     28 C         139.5995  144.3068  163.1476 C.ar    1  UNL1        0.0100
     29 C         138.8847  143.8005  164.3652 C.ar    1  UNL1        0.0684
     30 C         138.5997  142.3352  164.5124 C.ar    1  UNL1        0.0100
     31 C         139.0293  141.3763  163.4419 C.ar    1  UNL1       -0.0017
     32 C         138.4550  144.7594  165.4357 C.1     1  UNL1        0.1004
     33 N         138.0254  145.7183  166.5062 N.1     1  UNL1       -0.1908
@<TRIPOS>BOND
     1    17    18    1
     2    18    11    1
     3    11    12   ar
     4    12    13   ar
     5    13    14   ar
     6    14    15   ar
     7    15    16   ar
     8    16     3    1
     9     3     4    2
    10     3     5   am
    11     5     6    1
    12     6     7    1
    13     7     8    1
    14     8     1    1
    15     1    19    1
    16    19    20    1
    17    20    21   ar
    18    21    22   ar
    19    22    23   ar
    20    23    24   ar
    21    24    25    1
    22    25    26    1
    23    26    27   ar
    24    27    28   ar
    25    28    29   ar
    26    29    32    1
    27    32    33    3
    28    29    30   ar
    29    30    31   ar
    30     8     9    1
    31     9    10    2
    32    16    11   ar
    33     9     5   am
    34    24    20   ar
    35    31    26   ar
    36     1     2    1
