@<TRIPOS>MOLECULE
*****
 28 30 0 0 0
SMALL
GASTEIGER

@<TRIPOS>ATOM
      1 C         142.3869  140.1757  167.3320 C.3     1  UNL1        0.0721
      2 C         143.2595  144.1205  164.3049 C.3     1  UNL1        0.0061
      3 C         142.1450  143.2499  164.8049 C.3     1  UNL1        0.0380
      4 C         142.5460  142.1621  165.7566 C.3     1  UNL1        0.0764
      5 N         141.6779  141.1379  166.4256 N.3     1  UNL1       -0.2721
      6 C         140.1945  140.9485  166.3079 C.3     1  UNL1        0.0768
      7 C         139.2129  141.7367  165.4923 C.3     1  UNL1        0.0433
      8 C         139.4721  142.9088  164.5929 C.ar    1  UNL1       -0.0247
      9 C         138.2056  143.4053  163.9609 C.ar    1  UNL1       -0.0037
     10 C         138.2441  144.5752  163.0230 C.ar    1  UNL1        0.0111
     11 C         139.5490  145.2487  162.7170 C.ar    1  UNL1        0.0573
     12 CL        139.5874  146.4186  161.7790 Cl      1  UNL1       -0.0823
     13 C         140.8155  144.7522  163.3490 C.ar    1  UNL1        0.0069
     14 C         140.7771  143.5823  164.2869 C.ar    1  UNL1       -0.0242
     15 C         143.0511  138.9581  166.7610 C.3     1  UNL1        0.0173
     16 C         142.9841  138.6888  165.2869 C.3     1  UNL1        0.0015
     17 C         141.8286  137.9209  164.7165 C.3     1  UNL1        0.0017
     18 C         141.7615  137.6517  163.2424 C.3     1  UNL1        0.0196
     19 C         142.8500  138.1502  162.3387 C.3     1  UNL1        0.0730
     20 C         144.0055  138.9180  162.9091 C.3     1  UNL1        0.0196
     21 C         144.0725  139.1873  164.3832 C.3     1  UNL1        0.0017
     22 N         142.7830  137.8810  160.8646 N.am    1  UNL1       -0.2904
     23 C         141.8259  138.6516  160.0042 C.2     1  UNL1        0.3040
     24 O         140.9359  139.6914  160.6179 O.2     1  UNL1       -0.2526
     25 N         141.7589  138.3823  158.5301 N.am    1  UNL1       -0.2607
     26 C         140.8019  139.1528  157.6696 C.3     1  UNL1        0.1165
     27 C         142.6490  137.3424  157.9164 C.3     1  UNL1        0.1165
     28 H         143.3672  137.1985  160.4618 H       1  UNL1        0.1509
@<TRIPOS>BOND
     1     3     2    1
     2     3     4    1
     3     4     5    1
     4     5     1    1
     5     1    15    1
     6    16    15    1
     7    16    17    1
     8    17    18    1
     9    18    19    1
    10    19    22    1
    11    22    23   am
    12    23    24    2
    13    23    25   am
    14    25    26    1
    15    25    27    1
    16    19    20    1
    17    20    21    1
    18     5     6    1
    19     6     7    1
    20     7     8    1
    21     8     9   ar
    22     9    10   ar
    23    10    11   ar
    24    11    12    1
    25    11    13   ar
    26    13    14   ar
    27    14     3    1
    28    21    16    1
    29    14     8   ar
    30    22    28    1
@<TRIPOS>MOLECULE
*****
 28 30 0 0 0
SMALL
GASTEIGER

@<TRIPOS>ATOM
      1 C         138.7211  138.9920  162.7493 C.3     1  UNL1        0.0721
      2 C         140.7128  143.1193  164.8671 C.3     1  UNL1        0.0061
      3 C         140.0882  141.8030  165.2241 C.3     1  UNL1        0.0380
      4 C         139.6677  140.9470  164.0663 C.3     1  UNL1        0.0764
      5 N         139.0219  139.5933  164.0902 N.3     1  UNL1       -0.2721
      6 C         138.6370  138.7615  165.2776 C.3     1  UNL1        0.0768
      7 C         138.8029  139.0779  166.7344 C.3     1  UNL1        0.0433
      8 C         139.3947  140.3042  167.3637 C.ar    1  UNL1       -0.0247
      9 C         139.3691  140.2185  168.8610 C.ar    1  UNL1       -0.0037
     10 C         139.9156  141.3456  169.6861 C.ar    1  UNL1        0.0111
     11 C         140.4876  142.5585  169.0140 C.ar    1  UNL1        0.0573
     12 CL        141.0341  143.6856  169.8392 Cl      1  UNL1       -0.0823
     13 C         140.5132  142.6442  167.5167 C.ar    1  UNL1        0.0069
     14 C         139.9667  141.5170  166.6915 C.ar    1  UNL1       -0.0242
     15 C         139.6181  137.9304  162.1852 C.3     1  UNL1        0.0173
     16 C         140.5948  138.2727  161.0994 C.3     1  UNL1        0.0015
     17 C         142.0454  137.9259  161.2588 C.3     1  UNL1        0.0017
     18 C         143.0221  138.2683  160.1730 C.3     1  UNL1        0.0196
     19 C         142.5481  138.9575  158.9278 C.3     1  UNL1        0.0730
     20 C         141.0975  139.3042  158.7685 C.3     1  UNL1        0.0196
     21 C         140.1208  138.9619  159.8543 C.3     1  UNL1        0.0017
     22 N         143.5247  139.2999  157.8421 N.am    1  UNL1       -0.2904
     23 C         144.3179  140.5707  157.9201 C.2     1  UNL1        0.3040
     24 O         144.1344  141.4990  159.0839 O.2     1  UNL1       -0.2526
     25 N         145.2945  140.9130  156.8343 N.am    1  UNL1       -0.2607
     26 C         146.0877  142.1838  156.9123 C.3     1  UNL1        0.1165
     27 C         145.4780  139.9846  155.6705 C.3     1  UNL1        0.1165
     28 H         143.6452  138.6905  157.0782 H       1  UNL1        0.1509
@<TRIPOS>BOND
     1     3     2    1
     2     3     4    1
     3     4     5    1
     4     5     1    1
     5     1    15    1
     6    16    15    1
     7    16    17    1
     8    17    18    1
     9    18    19    1
    10    19    22    1
    11    22    23   am
    12    23    24    2
    13    23    25   am
    14    25    26    1
    15    25    27    1
    16    19    20    1
    17    20    21    1
    18     5     6    1
    19     6     7    1
    20     7     8    1
    21     8     9   ar
    22     9    10   ar
    23    10    11   ar
    24    11    12    1
    25    11    13   ar
    26    13    14   ar
    27    14     3    1
    28    21    16    1
    29    14     8   ar
    30    22    28    1
@<TRIPOS>MOLECULE
*****
 28 30 0 0 0
SMALL
GASTEIGER

@<TRIPOS>ATOM
      1 C         144.2759  142.8448  165.0835 C.3     1  UNL1        0.0721
      2 C         140.2784  141.9544  168.0353 C.3     1  UNL1        0.0061
      3 C         140.9927  141.4115  166.8332 C.3     1  UNL1        0.0380
      4 C         142.2120  142.1716  166.4024 C.3     1  UNL1        0.0764
      5 N         143.1329  141.8882  165.2528 N.3     1  UNL1       -0.2721
      6 C         143.0621  140.7748  164.2501 C.3     1  UNL1        0.0768
      7 C         142.0527  139.6698  164.1495 C.3     1  UNL1        0.0433
      8 C         140.8649  139.4052  165.0265 C.ar    1  UNL1       -0.0247
      9 C         140.1110  138.1893  164.5759 C.ar    1  UNL1       -0.0037
     10 C         138.8853  137.7485  165.3198 C.ar    1  UNL1        0.0111
     11 C         138.4136  138.5236  166.5142 C.ar    1  UNL1        0.0573
     12 CL        137.1878  138.0828  167.2580 Cl      1  UNL1       -0.0823
     13 C         139.1675  139.7396  166.9647 C.ar    1  UNL1        0.0069
     14 C         140.3932  140.1804  166.2209 C.ar    1  UNL1       -0.0242
     15 C         144.0756  144.1270  164.3314 C.3     1  UNL1        0.0173
     16 C         143.2819  144.1339  163.0586 C.3     1  UNL1        0.0015
     17 C         143.7870  143.3938  161.8557 C.3     1  UNL1        0.0017
     18 C         142.9933  143.4007  160.5829 C.3     1  UNL1        0.0196
     19 C         141.6944  144.1477  160.5131 C.3     1  UNL1        0.0730
     20 C         141.1893  144.8879  161.7160 C.3     1  UNL1        0.0196
     21 C         141.9830  144.8810  162.9888 C.3     1  UNL1        0.0017
     22 N         140.9006  144.1546  159.2404 N.am    1  UNL1       -0.2904
     23 C         141.2645  145.1008  158.1347 C.2     1  UNL1        0.3040
     24 O         142.4221  146.0400  158.3017 O.2     1  UNL1       -0.2526
     25 N         140.4708  145.1077  156.8619 N.am    1  UNL1       -0.2607
     26 C         140.8346  146.0538  155.7562 C.3     1  UNL1        0.1165
     27 C         139.3131  144.1685  156.6948 C.3     1  UNL1        0.1165
     28 H         140.1409  143.5382  159.1307 H       1  UNL1        0.1509
@<TRIPOS>BOND
     1     3     2    1
     2     3     4    1
     3     4     5    1
     4     5     1    1
     5     1    15    1
     6    16    15    1
     7    16    17    1
     8    17    18    1
     9    18    19    1
    10    19    22    1
    11    22    23   am
    12    23    24    2
    13    23    25   am
    14    25    26    1
    15    25    27    1
    16    19    20    1
    17    20    21    1
    18     5     6    1
    19     6     7    1
    20     7     8    1
    21     8     9   ar
    22     9    10   ar
    23    10    11   ar
    24    11    12    1
    25    11    13   ar
    26    13    14   ar
    27    14     3    1
    28    21    16    1
    29    14     8   ar
    30    22    28    1
@<TRIPOS>MOLECULE
*****
 28 30 0 0 0
SMALL
GASTEIGER

@<TRIPOS>ATOM
      1 C         138.6964  139.3942  166.7387 C.3     1  UNL1        0.0721
      2 C         139.5022  143.4172  163.7973 C.3     1  UNL1        0.0061
      3 C         140.1954  142.5340  164.7920 C.3     1  UNL1        0.0380
      4 C         139.3670  141.4214  165.3627 C.3     1  UNL1        0.0764
      5 N         139.7639  140.3801  166.3668 N.3     1  UNL1       -0.2721
      6 C         141.0873  140.1944  167.0483 C.3     1  UNL1        0.0768
      7 C         142.3404  141.0041  166.8938 C.3     1  UNL1        0.0433
      8 C         142.5799  142.1995  166.0198 C.ar    1  UNL1       -0.0247
      9 C         143.9818  142.7128  166.1655 C.ar    1  UNL1       -0.0037
     10 C         144.4290  143.9070  165.3757 C.ar    1  UNL1        0.0111
     11 C         143.4743  144.5879  164.4403 C.ar    1  UNL1        0.0573
     12 CL        143.9216  145.7822  163.6505 Cl      1  UNL1       -0.0823
     13 C         142.0725  144.0746  164.2947 C.ar    1  UNL1        0.0069
     14 C         141.6253  142.8803  165.0844 C.ar    1  UNL1       -0.0242
     15 C         138.4040  138.2303  165.8389 C.3     1  UNL1        0.0173
     16 C         139.1067  138.1073  164.5194 C.3     1  UNL1        0.0015
     17 C         138.4536  138.6221  163.2710 C.3     1  UNL1        0.0017
     18 C         139.1563  138.4991  161.9515 C.3     1  UNL1        0.0196
     19 C         140.5121  137.8613  161.8805 C.3     1  UNL1        0.0730
     20 C         141.1652  137.3466  163.1288 C.3     1  UNL1        0.0196
     21 C         140.4625  137.4696  164.4483 C.3     1  UNL1        0.0017
     22 N         141.2149  137.7383  160.5610 N.am    1  UNL1       -0.2904
     23 C         142.0048  138.8937  160.0214 C.2     1  UNL1        0.3040
     24 O         142.0921  140.1720  160.8013 O.2     1  UNL1       -0.2526
     25 N         142.7076  138.7707  158.7019 N.am    1  UNL1       -0.2607
     26 C         143.4975  139.9261  158.1623 C.3     1  UNL1        0.1165
     27 C         142.6203  137.4924  157.9220 C.3     1  UNL1        0.1165
     28 H         141.1576  136.8993  160.0491 H       1  UNL1        0.1509
@<TRIPOS>BOND
     1     3     2    1
     2     3     4    1
     3     4     5    1
     4     5     1    1
     5     1    15    1
     6    16    15    1
     7    16    17    1
     8    17    18    1
     9    18    19    1
    10    19    22    1
    11    22    23   am
    12    23    24    2
    13    23    25   am
    14    25    26    1
    15    25    27    1
    16    19    20    1
    17    20    21    1
    18     5     6    1
    19     6     7    1
    20     7     8    1
    21     8     9   ar
    22     9    10   ar
    23    10    11   ar
    24    11    12    1
    25    11    13   ar
    26    13    14   ar
    27    14     3    1
    28    21    16    1
    29    14     8   ar
    30    22    28    1
@<TRIPOS>MOLECULE
*****
 28 30 0 0 0
SMALL
GASTEIGER

@<TRIPOS>ATOM
      1 C         139.7930  137.4623  162.9522 C.3     1  UNL1        0.0721
      2 C         143.7540  138.4676  165.9163 C.3     1  UNL1        0.0061
      3 C         142.2765  138.7047  165.8129 C.3     1  UNL1        0.0380
      4 C         141.6040  138.1080  164.6122 C.3     1  UNL1        0.0764
      5 N         140.1558  138.1665  164.2260 N.3     1  UNL1       -0.2721
      6 C         139.0223  138.8361  164.9450 C.3     1  UNL1        0.0768
      7 C         139.0573  139.6125  166.2280 C.3     1  UNL1        0.0433
      8 C         140.2342  139.9112  167.1087 C.ar    1  UNL1       -0.0247
      9 C         139.8320  140.7231  168.3041 C.ar    1  UNL1       -0.0037
     10 C         140.8625  141.1309  169.3149 C.ar    1  UNL1        0.0111
     11 C         142.2952  140.7269  169.1302 C.ar    1  UNL1        0.0573
     12 CL        143.3258  141.1348  170.1410 Cl      1  UNL1       -0.0823
     13 C         142.6974  139.9151  167.9347 C.ar    1  UNL1        0.0069
     14 C         141.6669  139.5072  166.9240 C.ar    1  UNL1       -0.0242
     15 C         139.4320  138.2571  161.7324 C.3     1  UNL1        0.0173
     16 C         140.4717  138.5455  160.6904 C.3     1  UNL1        0.0015
     17 C         140.0761  139.1877  159.3938 C.3     1  UNL1        0.0017
     18 C         141.1158  139.4762  158.3518 C.3     1  UNL1        0.0196
     19 C         142.5512  139.1225  158.6064 C.3     1  UNL1        0.0730
     20 C         142.9467  138.4804  159.9030 C.3     1  UNL1        0.0196
     21 C         141.9070  138.1919  160.9450 C.3     1  UNL1        0.0017
     22 N         143.5909  139.4109  157.5644 N.am    1  UNL1       -0.2904
     23 C         144.4248  140.6541  157.6610 C.2     1  UNL1        0.3040
     24 O         144.2190  141.6087  158.7995 O.2     1  UNL1       -0.2526
     25 N         145.4645  140.9426  156.6190 N.am    1  UNL1       -0.2607
     26 C         146.2984  142.1856  156.7155 C.3     1  UNL1        0.1165
     27 C         145.6704  139.9879  155.4804 C.3     1  UNL1        0.1165
     28 H         143.7260  138.7844  156.8171 H       1  UNL1        0.1509
@<TRIPOS>BOND
     1     3     2    1
     2     3     4    1
     3     4     5    1
     4     5     1    1
     5     1    15    1
     6    16    15    1
     7    16    17    1
     8    17    18    1
     9    18    19    1
    10    19    22    1
    11    22    23   am
    12    23    24    2
    13    23    25   am
    14    25    26    1
    15    25    27    1
    16    19    20    1
    17    20    21    1
    18     5     6    1
    19     6     7    1
    20     7     8    1
    21     8     9   ar
    22     9    10   ar
    23    10    11   ar
    24    11    12    1
    25    11    13   ar
    26    13    14   ar
    27    14     3    1
    28    21    16    1
    29    14     8   ar
    30    22    28    1
@<TRIPOS>MOLECULE
*****
 28 30 0 0 0
SMALL
GASTEIGER

@<TRIPOS>ATOM
      1 C         139.0430  137.9672  162.6536 C.3     1  UNL1        0.0721
      2 C         143.2693  138.8129  165.2820 C.3     1  UNL1        0.0061
      3 C         141.7789  138.9498  165.3820 C.3     1  UNL1        0.0380
      4 C         141.0015  138.4914  164.1838 C.3     1  UNL1        0.0764
      5 N         139.5162  138.4970  163.9747 N.3     1  UNL1       -0.2721
      6 C         138.4414  138.9623  164.9119 C.3     1  UNL1        0.0768
      7 C         138.5867  139.5370  166.2898 C.3     1  UNL1        0.0433
      8 C         139.8424  139.7883  167.0709 C.ar    1  UNL1       -0.0247
      9 C         139.5418  140.3778  168.4170 C.ar    1  UNL1       -0.0037
     10 C         140.6619  140.7059  169.3591 C.ar    1  UNL1        0.0111
     11 C         142.0827  140.4446  168.9550 C.ar    1  UNL1        0.0573
     12 CL        143.2028  140.7728  169.8972 Cl      1  UNL1       -0.0823
     13 C         142.3833  139.8551  167.6089 C.ar    1  UNL1        0.0069
     14 C         141.2631  139.5270  166.6668 C.ar    1  UNL1       -0.0242
     15 C         137.9247  138.6540  161.9271 C.3     1  UNL1        0.0173
     16 C         138.2051  139.8733  161.0996 C.3     1  UNL1        0.0015
     17 C         138.5957  139.7281  159.6586 C.3     1  UNL1        0.0017
     18 C         138.8761  140.9474  158.8311 C.3     1  UNL1        0.0196
     19 C         138.7659  142.3118  159.4446 C.3     1  UNL1        0.0730
     20 C         138.3753  142.4569  160.8855 C.3     1  UNL1        0.0196
     21 C         138.0949  141.2376  161.7130 C.3     1  UNL1        0.0017
     22 N         139.0462  143.5311  158.6171 N.am    1  UNL1       -0.2904
     23 C         140.4447  144.0644  158.5172 C.2     1  UNL1        0.3040
     24 O         141.5627  143.3785  159.2449 O.2     1  UNL1       -0.2526
     25 N         140.7251  145.2837  157.6897 N.am    1  UNL1       -0.2607
     26 C         142.1235  145.8170  157.5898 C.3     1  UNL1        0.1165
     27 C         139.6070  145.9696  156.9620 C.3     1  UNL1        0.1165
     28 H         138.3124  143.9813  158.1395 H       1  UNL1        0.1509
@<TRIPOS>BOND
     1     3     2    1
     2     3     4    1
     3     4     5    1
     4     5     1    1
     5     1    15    1
     6    16    15    1
     7    16    17    1
     8    17    18    1
     9    18    19    1
    10    19    22    1
    11    22    23   am
    12    23    24    2
    13    23    25   am
    14    25    26    1
    15    25    27    1
    16    19    20    1
    17    20    21    1
    18     5     6    1
    19     6     7    1
    20     7     8    1
    21     8     9   ar
    22     9    10   ar
    23    10    11   ar
    24    11    12    1
    25    11    13   ar
    26    13    14   ar
    27    14     3    1
    28    21    16    1
    29    14     8   ar
    30    22    28    1
@<TRIPOS>MOLECULE
*****
 28 30 0 0 0
SMALL
GASTEIGER

@<TRIPOS>ATOM
      1 C         138.5438  141.8834  159.0049 C.3     1  UNL1        0.0721
      2 C         137.6115  142.5962  163.9150 C.3     1  UNL1        0.0061
      3 C         138.0436  141.5367  162.9450 C.3     1  UNL1        0.0380
      4 C         138.1432  141.9680  161.5118 C.3     1  UNL1        0.0764
      5 N         138.5427  141.1551  160.3162 N.3     1  UNL1       -0.2721
      6 C         138.9412  139.7101  160.2584 C.3     1  UNL1        0.0768
      7 C         139.0387  138.7213  161.3821 C.3     1  UNL1        0.0433
      8 C         138.7617  138.9330  162.8410 C.ar    1  UNL1       -0.0247
      9 C         138.9822  137.6758  163.6288 C.ar    1  UNL1       -0.0037
     10 C         138.7598  137.6715  165.1122 C.ar    1  UNL1        0.0111
     11 C         138.3169  138.9245  165.8078 C.ar    1  UNL1        0.0573
     12 CL        138.0945  138.9202  167.2912 Cl      1  UNL1       -0.0823
     13 C         138.0964  140.1818  165.0200 C.ar    1  UNL1        0.0069
     14 C         138.3188  140.1860  163.5366 C.ar    1  UNL1       -0.0242
     15 C         139.8268  142.4274  158.4502 C.3     1  UNL1        0.0173
     16 C         139.8198  143.6961  157.6499 C.3     1  UNL1        0.0015
     17 C         140.7778  144.8003  157.9862 C.3     1  UNL1        0.0017
     18 C         140.7708  146.0690  157.1860 C.3     1  UNL1        0.0196
     19 C         139.8057  146.2335  156.0494 C.3     1  UNL1        0.0730
     20 C         138.8478  145.1293  155.7132 C.3     1  UNL1        0.0196
     21 C         138.8548  143.8606  156.5134 C.3     1  UNL1        0.0017
     22 N         139.7987  147.5022  155.2492 N.am    1  UNL1       -0.2904
     23 C         139.1212  148.7263  155.7902 C.2     1  UNL1        0.3040
     24 O         138.4509  148.6818  157.1313 O.2     1  UNL1       -0.2526
     25 N         139.1142  149.9950  154.9899 N.am    1  UNL1       -0.2607
     26 C         138.4368  151.2192  155.5308 C.3     1  UNL1        0.1165
     27 C         139.7846  150.0395  153.6487 C.3     1  UNL1        0.1165
     28 H         140.2386  147.5314  154.3690 H       1  UNL1        0.1509
@<TRIPOS>BOND
     1     3     2    1
     2     3     4    1
     3     4     5    1
     4     5     1    1
     5     1    15    1
     6    16    15    1
     7    16    17    1
     8    17    18    1
     9    18    19    1
    10    19    22    1
    11    22    23   am
    12    23    24    2
    13    23    25   am
    14    25    26    1
    15    25    27    1
    16    19    20    1
    17    20    21    1
    18     5     6    1
    19     6     7    1
    20     7     8    1
    21     8     9   ar
    22     9    10   ar
    23    10    11   ar
    24    11    12    1
    25    11    13   ar
    26    13    14   ar
    27    14     3    1
    28    21    16    1
    29    14     8   ar
    30    22    28    1
@<TRIPOS>MOLECULE
*****
 28 30 0 0 0
SMALL
GASTEIGER

@<TRIPOS>ATOM
      1 C         138.8828  137.7323  163.5266 C.3     1  UNL1        0.0721
      2 C         142.5067  140.7615  165.3093 C.3     1  UNL1        0.0061
      3 C         141.2071  140.1273  165.7077 C.3     1  UNL1        0.0380
      4 C         140.5556  139.2681  164.6650 C.3     1  UNL1        0.0764
      5 N         139.2669  138.5055  164.7533 N.3     1  UNL1       -0.2721
      6 C         138.3114  138.4137  165.9060 C.3     1  UNL1        0.0768
      7 C         138.4088  139.0620  167.2552 C.3     1  UNL1        0.0433
      8 C         139.4855  139.9621  167.7849 C.ar    1  UNL1       -0.0247
      9 C         139.1954  140.3946  169.1916 C.ar    1  UNL1       -0.0037
     10 C         140.1507  141.3011  169.9096 C.ar    1  UNL1        0.0111
     11 C         141.3961  141.7752  169.2209 C.ar    1  UNL1        0.0573
     12 CL        142.3514  142.6819  169.9389 Cl      1  UNL1       -0.0823
     13 C         141.6862  141.3428  167.8142 C.ar    1  UNL1        0.0069
     14 C         140.7309  140.4362  167.0962 C.ar    1  UNL1       -0.0242
     15 C         139.7432  137.7966  162.2996 C.3     1  UNL1        0.0173
     16 C         139.4257  138.7791  161.2115 C.3     1  UNL1        0.0015
     17 C         138.4494  139.8894  161.4651 C.3     1  UNL1        0.0017
     18 C         138.1318  140.8719  160.3770 C.3     1  UNL1        0.0196
     19 C         138.7906  140.7442  159.0354 C.3     1  UNL1        0.0730
     20 C         139.7669  139.6340  158.7820 C.3     1  UNL1        0.0196
     21 C         140.0844  138.6515  159.8700 C.3     1  UNL1        0.0017
     22 N         138.4731  141.7267  157.9474 N.am    1  UNL1       -0.2904
     23 C         137.2797  141.5089  157.0650 C.2     1  UNL1        0.3040
     24 O         136.4039  140.3086  157.2708 O.2     1  UNL1       -0.2526
     25 N         136.9622  142.4914  155.9770 N.am    1  UNL1       -0.2607
     26 C         135.7689  142.2736  155.0947 C.3     1  UNL1        0.1165
     27 C         137.8380  143.6917  155.7713 C.3     1  UNL1        0.1165
     28 H         139.0479  142.5144  157.8124 H       1  UNL1        0.1509
@<TRIPOS>BOND
     1     3     2    1
     2     3     4    1
     3     4     5    1
     4     5     1    1
     5     1    15    1
     6    16    15    1
     7    16    17    1
     8    17    18    1
     9    18    19    1
    10    19    22    1
    11    22    23   am
    12    23    24    2
    13    23    25   am
    14    25    26    1
    15    25    27    1
    16    19    20    1
    17    20    21    1
    18     5     6    1
    19     6     7    1
    20     7     8    1
    21     8     9   ar
    22     9    10   ar
    23    10    11   ar
    24    11    12    1
    25    11    13   ar
    26    13    14   ar
    27    14     3    1
    28    21    16    1
    29    14     8   ar
    30    22    28    1
@<TRIPOS>MOLECULE
*****
 28 30 0 0 0
SMALL
GASTEIGER

@<TRIPOS>ATOM
      1 C         141.4369  137.5134  163.1051 C.3     1  UNL1        0.0721
      2 C         138.3730  139.0895  166.7949 C.3     1  UNL1        0.0061
      3 C         139.7602  139.2850  166.2586 C.3     1  UNL1        0.0380
      4 C         140.1103  138.4722  165.0476 C.3     1  UNL1        0.0764
      5 N         141.4005  138.4412  164.2831 N.3     1  UNL1       -0.2721
      6 C         142.6593  139.2153  164.5410 C.3     1  UNL1        0.0768
      7 C         142.9385  140.2116  165.6269 C.3     1  UNL1        0.0433
      8 C         142.0282  140.6799  166.7233 C.ar    1  UNL1       -0.0247
      9 C         142.7040  141.6896  167.6030 C.ar    1  UNL1       -0.0037
     10 C         141.9653  142.2869  168.7637 C.ar    1  UNL1        0.0111
     11 C         140.5507  141.8745  169.0449 C.ar    1  UNL1        0.0573
     12 CL        139.8120  142.4719  170.2057 Cl      1  UNL1       -0.0823
     13 C         139.8749  140.8649  168.1652 C.ar    1  UNL1        0.0069
     14 C         140.6137  140.2675  167.0044 C.ar    1  UNL1       -0.0242
     15 C         141.8684  138.0231  161.7620 C.3     1  UNL1        0.0173
     16 C         140.8487  138.5528  160.7978 C.3     1  UNL1        0.0015
     17 C         141.1634  138.6150  159.3324 C.3     1  UNL1        0.0017
     18 C         140.1437  139.1447  158.3682 C.3     1  UNL1        0.0196
     19 C         138.8093  139.6121  158.8694 C.3     1  UNL1        0.0730
     20 C         138.4947  139.5499  160.3346 C.3     1  UNL1        0.0196
     21 C         139.5144  139.0202  161.2988 C.3     1  UNL1        0.0017
     22 N         137.7896  140.1418  157.9052 N.am    1  UNL1       -0.2904
     23 C         137.9311  141.5284  157.3505 C.2     1  UNL1        0.3040
     24 O         139.0922  142.3851  157.7601 O.2     1  UNL1       -0.2526
     25 N         136.9114  142.0580  156.3863 N.am    1  UNL1       -0.2607
     26 C         137.0528  143.4445  155.8316 C.3     1  UNL1        0.1165
     27 C         135.7503  141.2012  155.9767 C.3     1  UNL1        0.1165
     28 H         137.0276  139.5795  157.6363 H       1  UNL1        0.1509
@<TRIPOS>BOND
     1     3     2    1
     2     3     4    1
     3     4     5    1
     4     5     1    1
     5     1    15    1
     6    16    15    1
     7    16    17    1
     8    17    18    1
     9    18    19    1
    10    19    22    1
    11    22    23   am
    12    23    24    2
    13    23    25   am
    14    25    26    1
    15    25    27    1
    16    19    20    1
    17    20    21    1
    18     5     6    1
    19     6     7    1
    20     7     8    1
    21     8     9   ar
    22     9    10   ar
    23    10    11   ar
    24    11    12    1
    25    11    13   ar
    26    13    14   ar
    27    14     3    1
    28    21    16    1
    29    14     8   ar
    30    22    28    1
