@<TRIPOS>MOLECULE
*****
 34 38 0 0 0
SMALL
GASTEIGER

@<TRIPOS>ATOM
      1 C         139.1546  139.1821  166.2056 C.ar    1  UNL1        0.1059
      2 C         139.3689  140.3334  167.1429 C.ar    1  UNL1        0.0183
      3 C         140.3181  141.4346  166.7736 C.ar    1  UNL1        0.0015
      4 C         141.0530  141.3844  165.4668 C.ar    1  UNL1        0.0045
      5 C         140.8387  140.2331  164.5295 C.ar    1  UNL1        0.0549
      6 C         139.8894  139.1319  164.8990 C.ar    1  UNL1        0.0229
      7 C         141.5735  140.1830  163.2228 C.2     1  UNL1        0.2496
      8 O         142.9013  139.4906  163.1352 O.2     1  UNL1       -0.2699
      9 N         140.9807  140.8253  162.0038 N.am    1  UNL1       -0.2661
     10 C         141.5956  140.8560  160.6360 C.3     1  UNL1        0.1236
     11 C         140.6637  141.5994  159.7254 C.ar    1  UNL1        0.0338
     12 C         140.4678  142.0777  158.3174 C.ar    1  UNL1        0.0991
     13 N         139.1559  142.8020  158.2522 N.ar    1  UNL1       -0.2265
     14 N         138.5409  142.7713  159.6200 N.ar    1  UNL1       -0.1679
     15 C         139.4729  142.0280  160.5306 C.ar    1  UNL1        0.0981
     16 C         139.6688  141.5496  161.9387 C.3     1  UNL1        0.1414
     17 C         138.5630  143.4443  157.0332 C.ar    1  UNL1        0.1102
     18 C         139.2245  144.6428  156.4200 C.ar    1  UNL1        0.0214
     19 C         138.6317  145.2851  155.2010 C.ar    1  UNL1        0.0017
     20 C         137.3773  144.7289  154.5952 C.ar    1  UNL1        0.0024
     21 C         136.7157  143.5304  155.2084 C.ar    1  UNL1        0.0312
     22 C         137.3086  142.8881  156.4274 C.ar    1  UNL1        0.1577
     23 F         136.6470  141.6895  157.0405 F       1  UNL1       -0.2026
     24 C         142.0022  142.4856  165.0975 C.ar    1  UNL1        0.0024
     25 C         143.4547  142.3750  165.4549 C.ar    1  UNL1        0.0001
     26 C         144.4039  143.4762  165.0856 C.ar    1  UNL1        0.0023
     27 C         143.9006  144.6880  164.3588 C.ar    1  UNL1        0.0296
     28 C         142.4480  144.7985  164.0013 C.ar    1  UNL1        0.1401
     29 F         141.9446  146.0103  163.2745 F       1  UNL1       -0.2042
     30 C         141.4988  143.6973  164.3707 C.ar    1  UNL1        0.0296
     31 C         137.2562  136.9797  166.9443 C.3     1  UNL1        0.1816
     32 S         138.2054  138.0809  166.5750 S.O2    1  UNL1        0.0105
     33 O         138.5789  137.3399  165.3254 O.2     1  UNL1       -0.1686
     34 O         137.8319  138.8220  167.8245 O.2     1  UNL1       -0.1686
@<TRIPOS>BOND
     1    31    32    1
     2    32    33    2
     3    32    34    2
     4    32     1    1
     5     1     2   ar
     6     2     3   ar
     7     3     4   ar
     8     4    24    1
     9    24    25   ar
    10    25    26   ar
    11    26    27   ar
    12    27    28   ar
    13    28    29    1
    14    28    30   ar
    15     4     5   ar
    16     5     7    1
    17     7     8    2
    18     7     9   am
    19     9    10    1
    20    10    11    1
    21    11    12   ar
    22    12    13   ar
    23    13    17    1
    24    17    18   ar
    25    18    19   ar
    26    19    20   ar
    27    20    21   ar
    28    21    22   ar
    29    22    23    1
    30    13    14   ar
    31    14    15   ar
    32    15    16    1
    33     5     6   ar
    34     6     1   ar
    35    30    24   ar
    36    16     9    1
    37    15    11   ar
    38    22    17   ar
@<TRIPOS>MOLECULE
*****
 34 38 0 0 0
SMALL
GASTEIGER

@<TRIPOS>ATOM
      1 C         142.0427  141.6742  168.5376 C.ar    1  UNL1        0.1059
      2 C         140.6977  141.0161  168.6271 C.ar    1  UNL1        0.0183
      3 C         140.1940  140.1810  167.4874 C.ar    1  UNL1        0.0015
      4 C         141.0354  140.0041  166.2582 C.ar    1  UNL1        0.0045
      5 C         142.3803  140.6621  166.1687 C.ar    1  UNL1        0.0549
      6 C         142.8840  141.4972  167.3085 C.ar    1  UNL1        0.0229
      7 C         143.2216  140.4851  164.9395 C.2     1  UNL1        0.2496
      8 O         144.3686  139.5185  164.9485 O.2     1  UNL1       -0.2699
      9 N         142.9158  141.2747  163.7013 N.am    1  UNL1       -0.2661
     10 C         143.6648  141.2046  162.4035 C.3     1  UNL1        0.1236
     11 C         143.0192  142.1596  161.4437 C.ar    1  UNL1        0.0338
     12 C         143.0831  142.7065  160.0484 C.ar    1  UNL1        0.0991
     13 N         141.9746  143.7047  159.8906 N.ar    1  UNL1       -0.2265
     14 N         141.2257  143.7748  161.1884 N.ar    1  UNL1       -0.1679
     15 C         141.8713  142.8198  162.1483 C.ar    1  UNL1        0.0981
     16 C         141.8074  142.2729  163.5435 C.3     1  UNL1        0.1414
     17 C         141.6689  144.4943  158.6524 C.ar    1  UNL1        0.1102
     18 C         142.4668  144.2681  157.4026 C.ar    1  UNL1        0.0214
     19 C         142.1611  145.0577  156.1644 C.ar    1  UNL1        0.0017
     20 C         141.0573  146.0733  156.1761 C.ar    1  UNL1        0.0024
     21 C         140.2593  146.2994  157.4259 C.ar    1  UNL1        0.0312
     22 C         140.5651  145.5099  158.6641 C.ar    1  UNL1        0.1577
     23 F         139.7670  145.7361  159.9139 F       1  UNL1       -0.2026
     24 C         140.5317  139.1690  165.1184 C.ar    1  UNL1        0.0024
     25 C         141.2185  137.8816  164.7711 C.ar    1  UNL1        0.0001
     26 C         140.7148  137.0465  163.6314 C.ar    1  UNL1        0.0023
     27 C         139.5243  137.4989  162.8390 C.ar    1  UNL1        0.0296
     28 C         138.8374  138.7863  163.1864 C.ar    1  UNL1        0.1401
     29 F         137.6468  139.2387  162.3940 F       1  UNL1       -0.2042
     30 C         139.3411  139.6214  164.3261 C.ar    1  UNL1        0.0296
     31 C         143.0501  143.3443  170.8170 C.3     1  UNL1        0.1816
     32 S         142.5464  142.5093  169.6773 S.O2    1  UNL1        0.0105
     33 O         141.2636  142.2724  170.4178 O.2     1  UNL1       -0.1686
     34 O         143.8292  142.7461  168.9368 O.2     1  UNL1       -0.1686
@<TRIPOS>BOND
     1    31    32    1
     2    32    33    2
     3    32    34    2
     4    32     1    1
     5     1     2   ar
     6     2     3   ar
     7     3     4   ar
     8     4    24    1
     9    24    25   ar
    10    25    26   ar
    11    26    27   ar
    12    27    28   ar
    13    28    29    1
    14    28    30   ar
    15     4     5   ar
    16     5     7    1
    17     7     8    2
    18     7     9   am
    19     9    10    1
    20    10    11    1
    21    11    12   ar
    22    12    13   ar
    23    13    17    1
    24    17    18   ar
    25    18    19   ar
    26    19    20   ar
    27    20    21   ar
    28    21    22   ar
    29    22    23    1
    30    13    14   ar
    31    14    15   ar
    32    15    16    1
    33     5     6   ar
    34     6     1   ar
    35    30    24   ar
    36    16     9    1
    37    15    11   ar
    38    22    17   ar
@<TRIPOS>MOLECULE
*****
 34 38 0 0 0
SMALL
GASTEIGER

@<TRIPOS>ATOM
      1 C         141.5626  140.3452  167.9591 C.ar    1  UNL1        0.1059
      2 C         141.8003  141.8245  168.0313 C.ar    1  UNL1        0.0183
      3 C         141.2276  142.7283  166.9801 C.ar    1  UNL1        0.0015
      4 C         140.4172  142.1528  165.8567 C.ar    1  UNL1        0.0045
      5 C         140.1795  140.6736  165.7844 C.ar    1  UNL1        0.0549
      6 C         140.7522  139.7697  166.8357 C.ar    1  UNL1        0.0229
      7 C         139.3691  140.0982  164.6610 C.2     1  UNL1        0.2496
      8 O         137.9013  139.8498  164.8456 O.2     1  UNL1       -0.2699
      9 N         140.0264  139.7712  163.3529 N.am    1  UNL1       -0.2661
     10 C         139.3487  139.1942  162.1455 C.3     1  UNL1        0.1236
     11 C         140.3803  139.0302  161.0690 C.ar    1  UNL1        0.0338
     12 C         140.5991  138.5723  159.6575 C.ar    1  UNL1        0.0991
     13 N         142.0495  138.7649  159.3272 N.ar    1  UNL1       -0.2265
     14 N         142.7272  139.3419  160.5346 N.ar    1  UNL1       -0.1679
     15 C         141.6955  139.5059  161.6112 C.ar    1  UNL1        0.0981
     16 C         141.4768  139.9638  163.0227 C.3     1  UNL1        0.1414
     17 C         142.7068  138.4379  158.0192 C.ar    1  UNL1        0.1102
     18 C         142.7534  137.0181  157.5374 C.ar    1  UNL1        0.0214
     19 C         143.4107  136.6911  156.2294 C.ar    1  UNL1        0.0017
     20 C         144.0215  137.7839  155.4031 C.ar    1  UNL1        0.0024
     21 C         143.9749  139.2037  155.8848 C.ar    1  UNL1        0.0312
     22 C         143.3176  139.5307  157.1929 C.ar    1  UNL1        0.1577
     23 F         143.2710  140.9505  157.6745 F       1  UNL1       -0.2026
     24 C         139.8445  143.0567  164.8055 C.ar    1  UNL1        0.0024
     25 C         138.3768  143.3662  164.8010 C.ar    1  UNL1        0.0001
     26 C         137.8041  144.2701  163.7497 C.ar    1  UNL1        0.0023
     27 C         138.6991  144.8645  162.7030 C.ar    1  UNL1        0.0296
     28 C         140.1668  144.5550  162.7075 C.ar    1  UNL1        0.1401
     29 F         141.0618  145.1494  161.6608 F       1  UNL1       -0.2042
     30 C         140.7395  143.6511  163.7588 C.ar    1  UNL1        0.0296
     31 C         142.7080  138.5374  170.0615 C.3     1  UNL1        0.1816
     32 S         142.1353  139.4413  169.0103 S.O2    1  UNL1        0.0105
     33 O         143.1737  138.9674  168.0371 O.2     1  UNL1       -0.1686
     34 O         141.0969  139.9152  169.9835 O.2     1  UNL1       -0.1686
@<TRIPOS>BOND
     1    31    32    1
     2    32    33    2
     3    32    34    2
     4    32     1    1
     5     1     2   ar
     6     2     3   ar
     7     3     4   ar
     8     4    24    1
     9    24    25   ar
    10    25    26   ar
    11    26    27   ar
    12    27    28   ar
    13    28    29    1
    14    28    30   ar
    15     4     5   ar
    16     5     7    1
    17     7     8    2
    18     7     9   am
    19     9    10    1
    20    10    11    1
    21    11    12   ar
    22    12    13   ar
    23    13    17    1
    24    17    18   ar
    25    18    19   ar
    26    19    20   ar
    27    20    21   ar
    28    21    22   ar
    29    22    23    1
    30    13    14   ar
    31    14    15   ar
    32    15    16    1
    33     5     6   ar
    34     6     1   ar
    35    30    24   ar
    36    16     9    1
    37    15    11   ar
    38    22    17   ar
@<TRIPOS>MOLECULE
*****
 34 38 0 0 0
SMALL
GASTEIGER

@<TRIPOS>ATOM
      1 C         142.0331  141.3523  168.0648 C.ar    1  UNL1        0.1059
      2 C         140.6863  142.0123  168.0889 C.ar    1  UNL1        0.0183
      3 C         140.1988  142.7660  166.8871 C.ar    1  UNL1        0.0015
      4 C         141.0582  142.8597  165.6612 C.ar    1  UNL1        0.0045
      5 C         142.4050  142.1997  165.6371 C.ar    1  UNL1        0.0549
      6 C         142.8924  141.4460  166.8389 C.ar    1  UNL1        0.0229
      7 C         143.2642  142.2935  164.4112 C.2     1  UNL1        0.2496
      8 O         144.4454  143.2179  164.3921 O.2     1  UNL1       -0.2699
      9 N         142.9424  141.4628  163.2044 N.am    1  UNL1       -0.2661
     10 C         143.7062  141.4501  161.9135 C.3     1  UNL1        0.1236
     11 C         143.0360  140.4784  160.9879 C.ar    1  UNL1        0.0338
     12 C         143.0939  139.8700  159.6181 C.ar    1  UNL1        0.0991
     13 N         141.9517  138.9062  159.4903 N.ar    1  UNL1       -0.2265
     14 N         141.1878  138.9188  160.7812 N.ar    1  UNL1       -0.1679
     15 C         141.8580  139.8906  161.7068 C.ar    1  UNL1        0.0981
     16 C         141.8002  140.4990  163.0766 C.3     1  UNL1        0.1414
     17 C         141.6298  138.0755  158.2835 C.ar    1  UNL1        0.1102
     18 C         142.6718  137.1699  157.6967 C.ar    1  UNL1        0.0214
     19 C         142.3499  136.3392  156.4899 C.ar    1  UNL1        0.0017
     20 C         140.9861  136.4141  155.8700 C.ar    1  UNL1        0.0024
     21 C         139.9441  137.3196  156.4568 C.ar    1  UNL1        0.0312
     22 C         140.2660  138.1503  157.6636 C.ar    1  UNL1        0.1577
     23 F         139.2240  139.0559  158.2503 F       1  UNL1       -0.2026
     24 C         140.5706  143.6134  164.4594 C.ar    1  UNL1        0.0024
     25 C         141.2711  144.8666  164.0251 C.ar    1  UNL1        0.0001
     26 C         140.7836  145.6203  162.8233 C.ar    1  UNL1        0.0023
     27 C         139.5955  145.1208  162.0559 C.ar    1  UNL1        0.0296
     28 C         138.8951  143.8675  162.4902 C.ar    1  UNL1        0.1401
     29 F         137.7070  143.3680  161.7228 F       1  UNL1       -0.2042
     30 C         139.3826  143.1138  163.6920 C.ar    1  UNL1        0.0296
     31 C         143.0082  139.8449  170.4683 C.3     1  UNL1        0.1816
     32 S         142.5207  140.5986  169.2665 S.O2    1  UNL1        0.0105
     33 O         142.9760  139.4783  168.3792 O.2     1  UNL1       -0.1686
     34 O         142.0653  141.7190  170.1539 O.2     1  UNL1       -0.1686
@<TRIPOS>BOND
     1    31    32    1
     2    32    33    2
     3    32    34    2
     4    32     1    1
     5     1     2   ar
     6     2     3   ar
     7     3     4   ar
     8     4    24    1
     9    24    25   ar
    10    25    26   ar
    11    26    27   ar
    12    27    28   ar
    13    28    29    1
    14    28    30   ar
    15     4     5   ar
    16     5     7    1
    17     7     8    2
    18     7     9   am
    19     9    10    1
    20    10    11    1
    21    11    12   ar
    22    12    13   ar
    23    13    17    1
    24    17    18   ar
    25    18    19   ar
    26    19    20   ar
    27    20    21   ar
    28    21    22   ar
    29    22    23    1
    30    13    14   ar
    31    14    15   ar
    32    15    16    1
    33     5     6   ar
    34     6     1   ar
    35    30    24   ar
    36    16     9    1
    37    15    11   ar
    38    22    17   ar
@<TRIPOS>MOLECULE
*****
 34 38 0 0 0
SMALL
GASTEIGER

@<TRIPOS>ATOM
      1 C         142.5235  141.3912  167.5388 C.ar    1  UNL1        0.1059
      2 C         141.7811  140.0946  167.4064 C.ar    1  UNL1        0.0183
      3 C         141.7904  139.3548  166.1016 C.ar    1  UNL1        0.0015
      4 C         142.5422  139.9118  164.9291 C.ar    1  UNL1        0.0045
      5 C         143.2846  141.2085  165.0614 C.ar    1  UNL1        0.0549
      6 C         143.2752  141.9482  166.3664 C.ar    1  UNL1        0.0229
      7 C         144.0363  141.7654  163.8889 C.2     1  UNL1        0.2496
      8 O         145.5363  141.7576  163.8874 O.2     1  UNL1       -0.2699
      9 N         143.2880  142.3300  162.7180 N.am    1  UNL1       -0.2661
     10 C         143.8999  142.9185  161.4813 C.3     1  UNL1        0.1236
     11 C         142.7865  143.3575  160.5771 C.ar    1  UNL1        0.0338
     12 C         142.4765  143.9925  159.2540 C.ar    1  UNL1        0.0991
     13 N         140.9849  144.0680  159.1141 N.ar    1  UNL1       -0.2265
     14 N         140.3730  143.4796  160.3508 N.ar    1  UNL1       -0.1679
     15 C         141.4865  143.0405  161.2550 C.ar    1  UNL1        0.0981
     16 C         141.7965  142.4055  162.5781 C.3     1  UNL1        0.1414
     17 C         140.2367  144.6326  157.9431 C.ar    1  UNL1        0.1102
     18 C         140.2848  146.1052  157.6618 C.ar    1  UNL1        0.0214
     19 C         139.5365  146.6699  156.4908 C.ar    1  UNL1        0.0017
     20 C         138.7401  145.7620  155.6012 C.ar    1  UNL1        0.0024
     21 C         138.6920  144.2894  155.8825 C.ar    1  UNL1        0.0312
     22 C         139.4403  143.7247  157.0535 C.ar    1  UNL1        0.1577
     23 F         139.3921  142.2521  157.3348 F       1  UNL1       -0.2026
     24 C         142.5515  139.1721  163.6242 C.ar    1  UNL1        0.0024
     25 C         143.8514  138.7211  163.0270 C.ar    1  UNL1        0.0001
     26 C         143.8608  137.9813  161.7221 C.ar    1  UNL1        0.0023
     27 C         142.5701  137.6926  161.0144 C.ar    1  UNL1        0.0296
     28 C         141.2701  138.1436  161.6116 C.ar    1  UNL1        0.1401
     29 F         139.9795  137.8548  160.9040 F       1  UNL1       -0.2042
     30 C         141.2608  138.8833  162.9165 C.ar    1  UNL1        0.0296
     31 C         142.5049  142.8707  170.1486 C.3     1  UNL1        0.1816
     32 S         142.5142  142.1310  168.8437 S.O2    1  UNL1        0.0105
     33 O         141.1948  141.5061  169.1885 O.2     1  UNL1       -0.1686
     34 O         143.8335  142.7558  168.4988 O.2     1  UNL1       -0.1686
@<TRIPOS>BOND
     1    31    32    1
     2    32    33    2
     3    32    34    2
     4    32     1    1
     5     1     2   ar
     6     2     3   ar
     7     3     4   ar
     8     4    24    1
     9    24    25   ar
    10    25    26   ar
    11    26    27   ar
    12    27    28   ar
    13    28    29    1
    14    28    30   ar
    15     4     5   ar
    16     5     7    1
    17     7     8    2
    18     7     9   am
    19     9    10    1
    20    10    11    1
    21    11    12   ar
    22    12    13   ar
    23    13    17    1
    24    17    18   ar
    25    18    19   ar
    26    19    20   ar
    27    20    21   ar
    28    21    22   ar
    29    22    23    1
    30    13    14   ar
    31    14    15   ar
    32    15    16    1
    33     5     6   ar
    34     6     1   ar
    35    30    24   ar
    36    16     9    1
    37    15    11   ar
    38    22    17   ar
@<TRIPOS>MOLECULE
*****
 34 38 0 0 0
SMALL
GASTEIGER

@<TRIPOS>ATOM
      1 C         139.1580  139.8268  166.1165 C.ar    1  UNL1        0.1059
      2 C         140.3390  140.3352  166.8889 C.ar    1  UNL1        0.0183
      3 C         141.2831  141.3148  166.2570 C.ar    1  UNL1        0.0015
      4 C         141.0459  141.7859  164.8528 C.ar    1  UNL1        0.0045
      5 C         139.8649  141.2775  164.0804 C.ar    1  UNL1        0.0549
      6 C         138.9208  140.2979  164.7123 C.ar    1  UNL1        0.0229
      7 C         139.6278  141.7486  162.6762 C.2     1  UNL1        0.2496
      8 O         138.9598  143.0691  162.4308 O.2     1  UNL1       -0.2699
      9 N         140.0589  140.8994  161.5173 N.am    1  UNL1       -0.2661
     10 C         139.8895  141.2370  160.0657 C.3     1  UNL1        0.1236
     11 C         140.4610  140.1096  159.2578 C.ar    1  UNL1        0.0338
     12 C         140.7094  139.6215  157.8614 C.ar    1  UNL1        0.0991
     13 N         141.3856  138.2855  157.9508 N.ar    1  UNL1       -0.2265
     14 N         141.5549  137.9479  159.4025 N.ar    1  UNL1       -0.1679
     15 C         140.9835  139.0753  160.2103 C.ar    1  UNL1        0.0981
     16 C         140.7350  139.5634  161.6067 C.3     1  UNL1        0.1414
     17 C         141.8166  137.4363  156.7920 C.ar    1  UNL1        0.1102
     18 C         143.2760  137.2575  156.4950 C.ar    1  UNL1        0.0214
     19 C         143.7071  136.4082  155.3362 C.ar    1  UNL1        0.0017
     20 C         142.6787  135.7378  154.4743 C.ar    1  UNL1        0.0024
     21 C         141.2193  135.9166  154.7712 C.ar    1  UNL1        0.0312
     22 C         140.7882  136.7659  155.9300 C.ar    1  UNL1        0.1577
     23 F         139.3288  136.9446  156.2269 F       1  UNL1       -0.2026
     24 C         141.9900  142.7655  164.2209 C.ar    1  UNL1        0.0024
     25 C         141.7473  144.2389  164.3621 C.ar    1  UNL1        0.0001
     26 C         142.6913  145.2185  163.7303 C.ar    1  UNL1        0.0023
     27 C         143.8781  144.7246  162.9572 C.ar    1  UNL1        0.0296
     28 C         144.1208  143.2511  162.8160 C.ar    1  UNL1        0.1401
     29 F         145.3076  142.7573  162.0429 F       1  UNL1       -0.2042
     30 C         143.1767  142.2716  163.4478 C.ar    1  UNL1        0.0296
     31 C         137.2699  137.8676  167.3802 C.3     1  UNL1        0.1816
     32 S         138.2139  138.8472  166.7484 S.O2    1  UNL1        0.0105
     33 O         138.4961  139.4441  168.0953 O.2     1  UNL1       -0.1686
     34 O         137.9317  138.2504  165.4014 O.2     1  UNL1       -0.1686
@<TRIPOS>BOND
     1    31    32    1
     2    32    33    2
     3    32    34    2
     4    32     1    1
     5     1     2   ar
     6     2     3   ar
     7     3     4   ar
     8     4    24    1
     9    24    25   ar
    10    25    26   ar
    11    26    27   ar
    12    27    28   ar
    13    28    29    1
    14    28    30   ar
    15     4     5   ar
    16     5     7    1
    17     7     8    2
    18     7     9   am
    19     9    10    1
    20    10    11    1
    21    11    12   ar
    22    12    13   ar
    23    13    17    1
    24    17    18   ar
    25    18    19   ar
    26    19    20   ar
    27    20    21   ar
    28    21    22   ar
    29    22    23    1
    30    13    14   ar
    31    14    15   ar
    32    15    16    1
    33     5     6   ar
    34     6     1   ar
    35    30    24   ar
    36    16     9    1
    37    15    11   ar
    38    22    17   ar
@<TRIPOS>MOLECULE
*****
 34 38 0 0 0
SMALL
GASTEIGER

@<TRIPOS>ATOM
      1 C         143.7358  141.0750  158.1240 C.ar    1  UNL1        0.1059
      2 C         143.2712  139.6624  157.9279 C.ar    1  UNL1        0.0183
      3 C         142.0288  139.1792  158.6156 C.ar    1  UNL1        0.0015
      4 C         141.2510  140.1088  159.4995 C.ar    1  UNL1        0.0045
      5 C         141.7157  141.5215  159.6955 C.ar    1  UNL1        0.0549
      6 C         142.9581  142.0046  159.0078 C.ar    1  UNL1        0.0229
      7 C         140.9379  142.4510  160.5793 C.2     1  UNL1        0.2496
      8 O         140.0359  143.4841  159.9719 O.2     1  UNL1       -0.2699
      9 N         141.0621  142.3473  162.0706 N.am    1  UNL1       -0.2661
     10 C         140.3505  143.2030  163.0762 C.3     1  UNL1        0.1236
     11 C         140.7683  142.7542  164.4452 C.ar    1  UNL1        0.0338
     12 C         140.5868  143.0057  165.9128 C.ar    1  UNL1        0.0991
     13 N         141.4444  142.0280  166.6601 N.ar    1  UNL1       -0.2265
     14 N         142.1560  141.1722  165.6545 N.ar    1  UNL1       -0.1679
     15 C         141.7381  141.6211  164.2855 C.ar    1  UNL1        0.0981
     16 C         141.9197  141.3696  162.8180 C.3     1  UNL1        0.1414
     17 C         141.5686  141.9243  168.1514 C.ar    1  UNL1        0.1102
     18 C         142.7611  142.5106  168.8472 C.ar    1  UNL1        0.0214
     19 C         142.8853  142.4069  170.3385 C.ar    1  UNL1        0.0017
     20 C         141.8170  141.7169  171.1339 C.ar    1  UNL1        0.0024
     21 C         140.6245  141.1306  170.4380 C.ar    1  UNL1        0.0312
     22 C         140.5003  141.2343  168.9467 C.ar    1  UNL1        0.1577
     23 F         139.3077  140.6480  168.2510 F       1  UNL1       -0.2026
     24 C         140.0086  139.6256  160.1872 C.ar    1  UNL1        0.0024
     25 C         138.6664  140.1422  159.7611 C.ar    1  UNL1        0.0001
     26 C         137.4240  139.6590  160.4489 C.ar    1  UNL1        0.0023
     27 C         137.5238  138.6592  161.5626 C.ar    1  UNL1        0.0296
     28 C         138.8660  138.1426  161.9886 C.ar    1  UNL1        0.1401
     29 F         138.9658  137.1428  163.1024 F       1  UNL1       -0.2042
     30 C         140.1084  138.6258  161.3009 C.ar    1  UNL1        0.0296
     31 C         146.2207  142.0414  156.7486 C.3     1  UNL1        0.1816
     32 S         144.9782  141.5582  157.4363 S.O2    1  UNL1        0.0105
     33 O         144.7811  142.9189  158.0362 O.2     1  UNL1       -0.1686
     34 O         145.1754  140.1976  156.8364 O.2     1  UNL1       -0.1686
@<TRIPOS>BOND
     1    31    32    1
     2    32    33    2
     3    32    34    2
     4    32     1    1
     5     1     2   ar
     6     2     3   ar
     7     3     4   ar
     8     4    24    1
     9    24    25   ar
    10    25    26   ar
    11    26    27   ar
    12    27    28   ar
    13    28    29    1
    14    28    30   ar
    15     4     5   ar
    16     5     7    1
    17     7     8    2
    18     7     9   am
    19     9    10    1
    20    10    11    1
    21    11    12   ar
    22    12    13   ar
    23    13    17    1
    24    17    18   ar
    25    18    19   ar
    26    19    20   ar
    27    20    21   ar
    28    21    22   ar
    29    22    23    1
    30    13    14   ar
    31    14    15   ar
    32    15    16    1
    33     5     6   ar
    34     6     1   ar
    35    30    24   ar
    36    16     9    1
    37    15    11   ar
    38    22    17   ar
@<TRIPOS>MOLECULE
*****
 34 38 0 0 0
SMALL
GASTEIGER

@<TRIPOS>ATOM
      1 C         139.3540  139.3314  165.7453 C.ar    1  UNL1        0.1059
      2 C         140.8055  139.2147  166.1050 C.ar    1  UNL1        0.0183
      3 C         141.8070  140.1500  165.4950 C.ar    1  UNL1        0.0015
      4 C         141.3568  141.2022  164.5252 C.ar    1  UNL1        0.0045
      5 C         139.9053  141.3189  164.1655 C.ar    1  UNL1        0.0549
      6 C         138.9039  140.3835  164.7755 C.ar    1  UNL1        0.0229
      7 C         139.4552  142.3710  163.1957 C.2     1  UNL1        0.2496
      8 O         139.3688  143.8041  163.6304 O.2     1  UNL1       -0.2699
      9 N         139.0916  141.9901  161.7912 N.am    1  UNL1       -0.2661
     10 C         138.6272  142.9270  160.7157 C.3     1  UNL1        0.1236
     11 C         138.3771  142.1213  159.4753 C.ar    1  UNL1        0.0338
     12 C         137.9355  142.2024  158.0441 C.ar    1  UNL1        0.0991
     13 N         137.9724  140.8177  157.4686 N.ar    1  UNL1       -0.2265
     14 N         138.4367  139.8808  158.5441 N.ar    1  UNL1       -0.1679
     15 C         138.6869  140.6865  159.7844 C.ar    1  UNL1        0.0981
     16 C         139.1284  140.6055  161.2156 C.3     1  UNL1        0.1414
     17 C         137.6087  140.4368  156.0641 C.ar    1  UNL1        0.1102
     18 C         138.6871  140.1480  155.0622 C.ar    1  UNL1        0.0214
     19 C         138.3234  139.7671  153.6576 C.ar    1  UNL1        0.0017
     20 C         136.8814  139.6750  153.2550 C.ar    1  UNL1        0.0024
     21 C         135.8031  139.9637  154.2569 C.ar    1  UNL1        0.0312
     22 C         136.1667  140.3446  155.6614 C.ar    1  UNL1        0.1577
     23 F         135.0883  140.6334  156.6633 F       1  UNL1       -0.2026
     24 C         142.3583  142.1376  163.9152 C.ar    1  UNL1        0.0024
     25 C         142.9897  141.8040  162.5961 C.ar    1  UNL1        0.0001
     26 C         143.9912  142.7394  161.9861 C.ar    1  UNL1        0.0023
     27 C         144.3612  144.0084  162.6952 C.ar    1  UNL1        0.0296
     28 C         143.7298  144.3419  164.0143 C.ar    1  UNL1        0.1401
     29 F         144.0998  145.6109  164.7233 F       1  UNL1       -0.2042
     30 C         142.7283  143.4065  164.6243 C.ar    1  UNL1        0.0296
     31 C         137.3511  137.4606  166.9653 C.3     1  UNL1        0.1816
     32 S         138.3525  138.3960  166.3553 S.O2    1  UNL1        0.0105
     33 O         138.3025  137.6150  165.0756 O.2     1  UNL1       -0.1686
     34 O         138.4026  139.1770  167.6350 O.2     1  UNL1       -0.1686
@<TRIPOS>BOND
     1    31    32    1
     2    32    33    2
     3    32    34    2
     4    32     1    1
     5     1     2   ar
     6     2     3   ar
     7     3     4   ar
     8     4    24    1
     9    24    25   ar
    10    25    26   ar
    11    26    27   ar
    12    27    28   ar
    13    28    29    1
    14    28    30   ar
    15     4     5   ar
    16     5     7    1
    17     7     8    2
    18     7     9   am
    19     9    10    1
    20    10    11    1
    21    11    12   ar
    22    12    13   ar
    23    13    17    1
    24    17    18   ar
    25    18    19   ar
    26    19    20   ar
    27    20    21   ar
    28    21    22   ar
    29    22    23    1
    30    13    14   ar
    31    14    15   ar
    32    15    16    1
    33     5     6   ar
    34     6     1   ar
    35    30    24   ar
    36    16     9    1
    37    15    11   ar
    38    22    17   ar
@<TRIPOS>MOLECULE
*****
 34 38 0 0 0
SMALL
GASTEIGER

@<TRIPOS>ATOM
      1 C         142.1086  141.1916  165.9873 C.ar    1  UNL1        0.1059
      2 C         142.8950  142.4541  165.7934 C.ar    1  UNL1        0.0183
      3 C         142.6490  143.3132  164.5886 C.ar    1  UNL1        0.0015
      4 C         141.6167  142.9098  163.5779 C.ar    1  UNL1        0.0045
      5 C         140.8303  141.6472  163.7719 C.ar    1  UNL1        0.0549
      6 C         141.0763  140.7881  164.9766 C.ar    1  UNL1        0.0229
      7 C         139.7980  141.2439  162.7611 C.2     1  UNL1        0.2496
      8 O         138.3727  141.6800  162.9297 O.2     1  UNL1       -0.2699
      9 N         140.1910  140.4044  161.5818 N.am    1  UNL1       -0.2661
     10 C         139.2740  139.9262  160.4952 C.3     1  UNL1        0.1236
     11 C         140.0863  139.1220  159.5238 C.ar    1  UNL1        0.0338
     12 C         140.0216  138.3294  158.2520 C.ar    1  UNL1        0.0991
     13 N         141.4005  137.8207  157.9522 N.ar    1  UNL1       -0.2265
     14 N         142.3174  138.2989  159.0388 N.ar    1  UNL1       -0.1679
     15 C         141.5052  139.1031  160.0102 C.ar    1  UNL1        0.0981
     16 C         141.5698  139.8957  161.2820 C.3     1  UNL1        0.1414
     17 C         141.7935  136.9812  156.7729 C.ar    1  UNL1        0.1102
     18 C         143.2323  136.6149  156.5591 C.ar    1  UNL1        0.0214
     19 C         143.6252  135.7754  155.3798 C.ar    1  UNL1        0.0017
     20 C         142.5794  135.3022  154.4142 C.ar    1  UNL1        0.0024
     21 C         141.1406  135.6686  154.6280 C.ar    1  UNL1        0.0312
     22 C         140.7477  136.5081  155.8073 C.ar    1  UNL1        0.1577
     23 F         139.3088  136.8744  156.0210 F       1  UNL1       -0.2026
     24 C         141.3707  143.7689  162.3731 C.ar    1  UNL1        0.0024
     25 C         142.0745  143.4702  161.0826 C.ar    1  UNL1        0.0001
     26 C         141.8286  144.3294  159.8779 C.ar    1  UNL1        0.0023
     27 C         140.8789  145.4873  159.9637 C.ar    1  UNL1        0.0296
     28 C         140.1751  145.7860  161.2542 C.ar    1  UNL1        0.1401
     29 F         139.2254  146.9438  161.3400 F       1  UNL1       -0.2042
     30 C         140.4210  144.9268  162.4589 C.ar    1  UNL1        0.0296
     31 C         142.6004  139.4732  168.3968 C.3     1  UNL1        0.1816
     32 S         142.3545  140.3324  167.1921 S.O2    1  UNL1        0.0105
     33 O         141.8152  139.1431  166.4540 O.2     1  UNL1       -0.1686
     34 O         142.8938  141.5217  167.9301 O.2     1  UNL1       -0.1686
@<TRIPOS>BOND
     1    31    32    1
     2    32    33    2
     3    32    34    2
     4    32     1    1
     5     1     2   ar
     6     2     3   ar
     7     3     4   ar
     8     4    24    1
     9    24    25   ar
    10    25    26   ar
    11    26    27   ar
    12    27    28   ar
    13    28    29    1
    14    28    30   ar
    15     4     5   ar
    16     5     7    1
    17     7     8    2
    18     7     9   am
    19     9    10    1
    20    10    11    1
    21    11    12   ar
    22    12    13   ar
    23    13    17    1
    24    17    18   ar
    25    18    19   ar
    26    19    20   ar
    27    20    21   ar
    28    21    22   ar
    29    22    23    1
    30    13    14   ar
    31    14    15   ar
    32    15    16    1
    33     5     6   ar
    34     6     1   ar
    35    30    24   ar
    36    16     9    1
    37    15    11   ar
    38    22    17   ar
