@<TRIPOS>MOLECULE
*****
 30 34 0 0 0
SMALL
GASTEIGER

@<TRIPOS>ATOM
      1 C         143.7300  142.8476  166.5663 C.3     1  UNL1        0.0285
      2 C         142.5654  142.0056  166.1368 C.3     1  UNL1        0.1321
      3 C         142.3523  141.7061  164.6825 C.3     1  UNL1        0.2279
      4 O         141.1876  140.8641  164.2530 O.3     1  UNL1       -0.4707
      5 C         140.2361  140.3214  165.2777 C.ar    1  UNL1        0.1676
      6 C         139.0714  139.4794  164.8481 C.ar    1  UNL1        0.0860
      7 C         138.1199  138.9367  165.8728 C.ar    1  UNL1        0.0473
      8 C         138.3330  139.2362  167.3272 C.ar    1  UNL1        0.1429
      9 F         137.3814  138.6935  168.3519 F       1  UNL1       -0.2041
     10 C         139.4976  140.0782  167.7567 C.ar    1  UNL1        0.0466
     11 C         139.7107  140.3776  169.2110 C.ar    1  UNL1        0.0097
     12 C         140.8754  141.2197  169.6405 C.ar    1  UNL1        0.0702
     13 C         141.8269  141.7623  168.6158 C.ar    1  UNL1        0.2620
     14 O         142.9916  142.6044  169.0454 O.2     1  UNL1       -0.2669
     15 N         141.6138  141.4629  167.1615 N.ar    1  UNL1       -0.2909
     16 C         140.4492  140.6209  166.7319 C.ar    1  UNL1        0.1000
     17 N         138.8583  139.1800  163.3939 N.pl3   1  UNL1       -0.3050
     18 C         139.1558  137.8791  162.7087 C.3     1  UNL1        0.0910
     19 C         138.7917  138.0239  161.2608 C.3     1  UNL1        0.0244
     20 C         138.2691  139.4143  161.0510 C.3     1  UNL1        0.0344
     21 C         138.3103  140.1287  162.3694 C.3     1  UNL1        0.0921
     22 C         137.7895  139.9892  159.7513 C.3     1  UNL1        0.0406
     23 N         136.3120  139.7797  159.9032 N.3     1  UNL1       -0.3231
     24 C         137.8231  140.6369  158.3988 C.3     1  UNL1        0.0156
     25 C         139.1005  140.3984  159.1480 C.3     1  UNL1        0.0156
     26 H         136.1223  139.3343  160.8009 H       1  UNL1        0.1188
     27 H         135.9740  139.1821  159.1489 H       1  UNL1        0.1188
     28 C         141.0885  141.5191  171.0949 C.2     1  UNL1        0.0775
     29 O         140.1805  142.4800  171.8036 O.co2   1  UNL1       -0.5444
     30 O         142.2095  140.8576  171.8403 O.co2   1  UNL1       -0.5444
@<TRIPOS>UNITY_ATOM_ATTR
29 1
charge -1
@<TRIPOS>BOND
     1     2     1    1
     2     2     3    1
     3     3     4    1
     4     4     5    1
     5     5     6   ar
     6     6    17    1
     7    17    18    1
     8    18    19    1
     9    19    20    1
    10    20    22    1
    11    22    23    1
    12    22    24    1
    13    24    25    1
    14    20    21    1
    15     6     7   ar
    16     7     8   ar
    17     8     9    1
    18     8    10   ar
    19    10    11   ar
    20    11    12   ar
    21    12    28    1
    22    28    29   ar
    23    28    30   ar
    24    12    13   ar
    25    13    14    2
    26    13    15   ar
    27    15    16   ar
    28    15     2    1
    29    16     5   ar
    30    21    17    1
    31    16    10   ar
    32    25    22    1
    33    23    26    1
    34    23    27    1
@<TRIPOS>MOLECULE
*****
 30 34 0 0 0
SMALL
GASTEIGER

@<TRIPOS>ATOM
      1 C         137.7004  138.4225  167.0997 C.3     1  UNL1        0.0285
      2 C         138.9199  138.9612  166.4123 C.3     1  UNL1        0.1321
      3 C         139.2405  138.5349  165.0104 C.3     1  UNL1        0.2279
      4 O         140.4601  139.0736  164.3230 O.3     1  UNL1       -0.4707
      5 C         141.3590  140.0387  165.0376 C.ar    1  UNL1        0.1676
      6 C         142.5785  140.5774  164.3502 C.ar    1  UNL1        0.0860
      7 C         143.4775  141.5424  165.0647 C.ar    1  UNL1        0.0473
      8 C         143.1568  141.9688  166.4667 C.ar    1  UNL1        0.1429
      9 F         144.0558  142.9338  167.1812 F       1  UNL1       -0.2041
     10 C         141.9373  141.4301  167.1541 C.ar    1  UNL1        0.0466
     11 C         141.6167  141.8564  168.5560 C.ar    1  UNL1        0.0097
     12 C         140.3971  141.3177  169.2434 C.ar    1  UNL1        0.0702
     13 C         139.4982  140.3526  168.5288 C.ar    1  UNL1        0.2620
     14 O         138.2787  139.8139  169.2162 O.2     1  UNL1       -0.2669
     15 N         139.8188  139.9263  167.1268 N.ar    1  UNL1       -0.2909
     16 C         141.0384  140.4650  166.4395 C.ar    1  UNL1        0.1000
     17 N         142.8992  140.1510  162.9483 N.pl3   1  UNL1       -0.3050
     18 C         143.7372  138.9705  162.5555 C.3     1  UNL1        0.0910
     19 C         143.7941  138.9202  161.0575 C.3     1  UNL1        0.0244
     20 C         142.9912  140.0696  160.5242 C.3     1  UNL1        0.0344
     21 C         142.4381  140.8303  161.6929 C.3     1  UNL1        0.0921
     22 C         142.7787  140.4003  159.0767 C.3     1  UNL1        0.0406
     23 N         143.8817  139.5919  158.4602 N.3     1  UNL1       -0.3231
     24 C         142.1832  141.0117  157.8432 C.3     1  UNL1        0.0156
     25 C         141.6020  141.3235  159.1904 C.3     1  UNL1        0.0156
     26 H         144.3947  139.1021  159.1932 H       1  UNL1        0.1188
     27 H         144.5166  140.2114  157.9566 H       1  UNL1        0.1188
     28 C         140.0765  141.7441  170.6453 C.2     1  UNL1        0.0775
     29 O         140.6354  140.9791  171.8083 O.co2   1  UNL1       -0.5444
     30 O         139.1971  142.9355  170.8843 O.co2   1  UNL1       -0.5444
@<TRIPOS>UNITY_ATOM_ATTR
29 1
charge -1
@<TRIPOS>BOND
     1     2     1    1
     2     2     3    1
     3     3     4    1
     4     4     5    1
     5     5     6   ar
     6     6    17    1
     7    17    18    1
     8    18    19    1
     9    19    20    1
    10    20    22    1
    11    22    23    1
    12    22    24    1
    13    24    25    1
    14    20    21    1
    15     6     7   ar
    16     7     8   ar
    17     8     9    1
    18     8    10   ar
    19    10    11   ar
    20    11    12   ar
    21    12    28    1
    22    28    29   ar
    23    28    30   ar
    24    12    13   ar
    25    13    14    2
    26    13    15   ar
    27    15    16   ar
    28    15     2    1
    29    16     5   ar
    30    21    17    1
    31    16    10   ar
    32    25    22    1
    33    23    26    1
    34    23    27    1
@<TRIPOS>MOLECULE
*****
 30 34 0 0 0
SMALL
GASTEIGER

@<TRIPOS>ATOM
      1 C         138.6877  139.6934  165.8176 C.3     1  UNL1        0.0285
      2 C         139.7307  140.5304  165.1382 C.3     1  UNL1        0.1321
      3 C         139.6349  140.7983  163.6654 C.3     1  UNL1        0.2279
      4 O         140.6778  141.6353  162.9860 O.3     1  UNL1       -0.4707
      5 C         141.8166  142.2044  163.7792 C.ar    1  UNL1        0.1676
      6 C         142.8595  143.0414  163.0998 C.ar    1  UNL1        0.0860
      7 C         143.9983  143.6105  163.8931 C.ar    1  UNL1        0.0473
      8 C         144.0941  143.3426  165.3659 C.ar    1  UNL1        0.1429
      9 F         145.2329  143.9116  166.1592 F       1  UNL1       -0.2041
     10 C         143.0512  142.5056  166.0453 C.ar    1  UNL1        0.0466
     11 C         143.1470  142.2376  167.5181 C.ar    1  UNL1        0.0097
     12 C         142.1040  141.4006  168.1975 C.ar    1  UNL1        0.0702
     13 C         140.9653  140.8315  167.4043 C.ar    1  UNL1        0.2620
     14 O         139.9223  139.9945  168.0837 O.2     1  UNL1       -0.2669
     15 N         140.8694  141.0995  165.9314 N.ar    1  UNL1       -0.2909
     16 C         141.9124  141.9365  165.2520 C.ar    1  UNL1        0.1000
     17 N         142.7637  143.3093  161.6271 N.pl3   1  UNL1       -0.3050
     18 C         143.5111  142.5828  160.5482 C.3     1  UNL1        0.0910
     19 C         143.1131  143.1753  159.2289 C.3     1  UNL1        0.0244
     20 C         142.1197  144.2679  159.4923 C.3     1  UNL1        0.0344
     21 C         141.9038  144.3508  160.9745 C.3     1  UNL1        0.0921
     22 C         141.4583  145.1269  158.4556 C.3     1  UNL1        0.0406
     23 N         142.6616  145.5661  157.6750 N.3     1  UNL1       -0.3231
     24 C         140.3791  145.8334  157.6900 C.3     1  UNL1        0.0156
     25 C         140.0254  144.9860  158.8762 C.3     1  UNL1        0.0156
     26 H         143.5009  145.1561  158.0847 H       1  UNL1        0.1188
     27 H         142.7319  146.5833  157.7024 H       1  UNL1        0.1188
     28 C         142.1999  141.1327  169.6703 C.2     1  UNL1        0.0775
     29 O         143.2463  140.1951  170.1956 O.co2   1  UNL1       -0.5444
     30 O         141.2493  141.8024  170.6179 O.co2   1  UNL1       -0.5444
@<TRIPOS>UNITY_ATOM_ATTR
29 1
charge -1
@<TRIPOS>BOND
     1     2     1    1
     2     2     3    1
     3     3     4    1
     4     4     5    1
     5     5     6   ar
     6     6    17    1
     7    17    18    1
     8    18    19    1
     9    19    20    1
    10    20    22    1
    11    22    23    1
    12    22    24    1
    13    24    25    1
    14    20    21    1
    15     6     7   ar
    16     7     8   ar
    17     8     9    1
    18     8    10   ar
    19    10    11   ar
    20    11    12   ar
    21    12    28    1
    22    28    29   ar
    23    28    30   ar
    24    12    13   ar
    25    13    14    2
    26    13    15   ar
    27    15    16   ar
    28    15     2    1
    29    16     5   ar
    30    21    17    1
    31    16    10   ar
    32    25    22    1
    33    23    26    1
    34    23    27    1
@<TRIPOS>MOLECULE
*****
 30 34 0 0 0
SMALL
GASTEIGER

@<TRIPOS>ATOM
      1 C         143.9689  143.1482  166.2931 C.3     1  UNL1        0.0285
      2 C         142.7705  142.3901  165.8041 C.3     1  UNL1        0.1321
      3 C         142.4809  142.3120  164.3344 C.3     1  UNL1        0.2279
      4 O         141.2826  141.5539  163.8453 O.3     1  UNL1       -0.4707
      5 C         140.3738  140.8738  164.8259 C.ar    1  UNL1        0.1676
      6 C         139.1755  140.1157  164.3369 C.ar    1  UNL1        0.0860
      7 C         138.2667  139.4357  165.3175 C.ar    1  UNL1        0.0473
      8 C         138.5563  139.5137  166.7872 C.ar    1  UNL1        0.1429
      9 F         137.6476  138.8336  167.7678 F       1  UNL1       -0.2041
     10 C         139.7547  140.2718  167.2763 C.ar    1  UNL1        0.0466
     11 C         140.0443  140.3499  168.7460 C.ar    1  UNL1        0.0097
     12 C         141.2426  141.1080  169.2350 C.ar    1  UNL1        0.0702
     13 C         142.1514  141.7880  168.2544 C.ar    1  UNL1        0.2620
     14 O         143.3497  142.5462  168.7435 O.2     1  UNL1       -0.2669
     15 N         141.8618  141.7100  166.7847 N.ar    1  UNL1       -0.2909
     16 C         140.6634  140.9519  166.2956 C.ar    1  UNL1        0.1000
     17 N         138.8859  140.0377  162.8672 N.pl3   1  UNL1       -0.3050
     18 C         137.6474  140.5384  162.1847 C.3     1  UNL1        0.0910
     19 C         137.7799  140.2554  160.7177 C.3     1  UNL1        0.0244
     20 C         139.1003  139.5798  160.4933 C.3     1  UNL1        0.0344
     21 C         139.7838  139.4452  161.8218 C.3     1  UNL1        0.0921
     22 C         139.6420  139.1195  159.1725 C.3     1  UNL1        0.0406
     23 N         138.5501  139.5980  158.2621 N.3     1  UNL1       -0.3231
     24 C         140.5629  138.4931  158.1678 C.3     1  UNL1        0.0156
     25 C         140.9220  138.4812  159.6241 C.3     1  UNL1        0.0156
     26 H         137.8265  140.0602  158.8127 H       1  UNL1        0.1188
     27 H         138.1456  138.8022  157.7687 H       1  UNL1        0.1188
     28 C         141.5322  141.1860  170.7048 C.2     1  UNL1        0.0775
     29 O         142.6681  140.3990  171.2883 O.co2   1  UNL1       -0.5444
     30 O         140.6859  142.0511  171.5911 O.co2   1  UNL1       -0.5444
@<TRIPOS>UNITY_ATOM_ATTR
29 1
charge -1
@<TRIPOS>BOND
     1     2     1    1
     2     2     3    1
     3     3     4    1
     4     4     5    1
     5     5     6   ar
     6     6    17    1
     7    17    18    1
     8    18    19    1
     9    19    20    1
    10    20    22    1
    11    22    23    1
    12    22    24    1
    13    24    25    1
    14    20    21    1
    15     6     7   ar
    16     7     8   ar
    17     8     9    1
    18     8    10   ar
    19    10    11   ar
    20    11    12   ar
    21    12    28    1
    22    28    29   ar
    23    28    30   ar
    24    12    13   ar
    25    13    14    2
    26    13    15   ar
    27    15    16   ar
    28    15     2    1
    29    16     5   ar
    30    21    17    1
    31    16    10   ar
    32    25    22    1
    33    23    26    1
    34    23    27    1
@<TRIPOS>MOLECULE
*****
 30 34 0 0 0
SMALL
GASTEIGER

@<TRIPOS>ATOM
      1 C         143.0352  139.0995  166.0915 C.3     1  UNL1        0.0285
      2 C         142.3419  140.1965  165.3392 C.3     1  UNL1        0.1321
      3 C         142.4602  140.2726  163.8458 C.3     1  UNL1        0.2279
      4 O         141.7669  141.3696  163.0935 O.3     1  UNL1       -0.4707
      5 C         140.9553  142.3904  163.8346 C.ar    1  UNL1        0.1676
      6 C         140.2620  143.4874  163.0823 C.ar    1  UNL1        0.0860
      7 C         139.4505  144.5083  163.8233 C.ar    1  UNL1        0.0473
      8 C         139.3322  144.4322  165.3167 C.ar    1  UNL1        0.1429
      9 F         138.5206  145.4530  166.0578 F       1  UNL1       -0.2041
     10 C         140.0255  143.3352  166.0690 C.ar    1  UNL1        0.0466
     11 C         139.9072  143.2590  167.5624 C.ar    1  UNL1        0.0097
     12 C         140.6004  142.1621  168.3147 C.ar    1  UNL1        0.0702
     13 C         141.4120  141.1412  167.5737 C.ar    1  UNL1        0.2620
     14 O         142.1053  140.0442  168.3260 O.2     1  UNL1       -0.2669
     15 N         141.5303  141.2173  166.0802 N.ar    1  UNL1       -0.2909
     16 C         140.8370  142.3143  165.3279 C.ar    1  UNL1        0.1000
     17 N         140.3803  143.5636  161.5889 N.pl3   1  UNL1       -0.3050
     18 C         139.6173  142.7323  160.6004 C.3     1  UNL1        0.0910
     19 C         140.0478  143.1393  159.2224 C.3     1  UNL1        0.0244
     20 C         141.0768  144.2221  159.3590 C.3     1  UNL1        0.0344
     21 C         141.2823  144.4843  160.8217 C.3     1  UNL1        0.0921
     22 C         141.7773  144.9201  158.2312 C.3     1  UNL1        0.0406
     23 N         143.1010  144.2155  158.2708 N.3     1  UNL1       -0.3231
     24 C         142.0182  145.8628  157.0897 C.3     1  UNL1        0.0156
     25 C         140.6970  145.8671  157.7999 C.3     1  UNL1        0.0156
     26 H         143.0946  143.5217  159.0185 H       1  UNL1        0.1188
     27 H         143.8425  144.8943  158.4433 H       1  UNL1        0.1188
     28 C         140.4821  142.0860  169.8082 C.2     1  UNL1        0.0775
     29 O         141.4340  142.8545  170.6761 O.co2   1  UNL1       -0.5444
     30 O         139.4119  141.2413  170.4336 O.co2   1  UNL1       -0.5444
@<TRIPOS>UNITY_ATOM_ATTR
29 1
charge -1
@<TRIPOS>BOND
     1     2     1    1
     2     2     3    1
     3     3     4    1
     4     4     5    1
     5     5     6   ar
     6     6    17    1
     7    17    18    1
     8    18    19    1
     9    19    20    1
    10    20    22    1
    11    22    23    1
    12    22    24    1
    13    24    25    1
    14    20    21    1
    15     6     7   ar
    16     7     8   ar
    17     8     9    1
    18     8    10   ar
    19    10    11   ar
    20    11    12   ar
    21    12    28    1
    22    28    29   ar
    23    28    30   ar
    24    12    13   ar
    25    13    14    2
    26    13    15   ar
    27    15    16   ar
    28    15     2    1
    29    16     5   ar
    30    21    17    1
    31    16    10   ar
    32    25    22    1
    33    23    26    1
    34    23    27    1
@<TRIPOS>MOLECULE
*****
 30 34 0 0 0
SMALL
GASTEIGER

@<TRIPOS>ATOM
      1 C         139.3829  144.2010  166.3029 C.3     1  UNL1        0.0285
      2 C         140.1333  142.9960  165.8183 C.3     1  UNL1        0.1321
      3 C         140.1693  142.6737  164.3538 C.3     1  UNL1        0.2279
      4 O         140.9197  141.4686  163.8693 O.3     1  UNL1       -0.4707
      5 C         141.6340  140.5858  164.8493 C.ar    1  UNL1        0.1676
      6 C         142.3844  139.3808  164.3648 C.ar    1  UNL1        0.0860
      7 C         143.0987  138.4980  165.3447 C.ar    1  UNL1        0.0473
      8 C         143.0627  138.8203  166.8093 C.ar    1  UNL1        0.1429
      9 F         143.7771  137.9375  167.7893 F       1  UNL1       -0.2041
     10 C         142.3124  140.0253  167.2938 C.ar    1  UNL1        0.0466
     11 C         142.2763  140.3476  168.7583 C.ar    1  UNL1        0.0097
     12 C         141.5260  141.5527  169.2428 C.ar    1  UNL1        0.0702
     13 C         140.8116  142.4355  168.2629 C.ar    1  UNL1        0.2620
     14 O         140.0613  143.6405  168.7474 O.2     1  UNL1       -0.2669
     15 N         140.8476  142.1132  166.7983 N.ar    1  UNL1       -0.2909
     16 C         141.5980  140.9081  166.3138 C.ar    1  UNL1        0.1000
     17 N         142.4204  139.0585  162.9003 N.pl3   1  UNL1       -0.3050
     18 C         141.7535  137.8893  162.2381 C.3     1  UNL1        0.0910
     19 C         142.0506  137.9570  160.7693 C.3     1  UNL1        0.0244
     20 C         142.9011  139.1679  160.5237 C.3     1  UNL1        0.0344
     21 C         143.1297  139.8487  161.8407 C.3     1  UNL1        0.0921
     22 C         143.4301  139.6189  159.1946 C.3     1  UNL1        0.0406
     23 N         143.2018  138.3752  158.3877 N.3     1  UNL1       -0.3231
     24 C         144.0385  140.5018  158.1456 C.3     1  UNL1        0.0156
     25 C         143.8422  141.0193  159.5398 C.3     1  UNL1        0.0156
     26 H         142.7798  137.6591  158.9789 H       1  UNL1        0.1188
     27 H         144.0932  138.0359  158.0264 H       1  UNL1        0.1188
     28 C         141.4900  141.8749  170.7074 C.2     1  UNL1        0.0775
     29 O         140.6156  141.0780  171.6295 O.co2   1  UNL1       -0.5444
     30 O         142.3284  142.9942  171.2499 O.co2   1  UNL1       -0.5444
@<TRIPOS>UNITY_ATOM_ATTR
29 1
charge -1
@<TRIPOS>BOND
     1     2     1    1
     2     2     3    1
     3     3     4    1
     4     4     5    1
     5     5     6   ar
     6     6    17    1
     7    17    18    1
     8    18    19    1
     9    19    20    1
    10    20    22    1
    11    22    23    1
    12    22    24    1
    13    24    25    1
    14    20    21    1
    15     6     7   ar
    16     7     8   ar
    17     8     9    1
    18     8    10   ar
    19    10    11   ar
    20    11    12   ar
    21    12    28    1
    22    28    29   ar
    23    28    30   ar
    24    12    13   ar
    25    13    14    2
    26    13    15   ar
    27    15    16   ar
    28    15     2    1
    29    16     5   ar
    30    21    17    1
    31    16    10   ar
    32    25    22    1
    33    23    26    1
    34    23    27    1
@<TRIPOS>MOLECULE
*****
 30 34 0 0 0
SMALL
GASTEIGER

@<TRIPOS>ATOM
      1 C         139.9416  137.6581  162.9098 C.3     1  UNL1        0.0285
      2 C         140.8901  138.6997  162.3946 C.3     1  UNL1        0.1321
      3 C         140.6579  139.3274  161.0522 C.3     1  UNL1        0.2279
      4 O         141.6064  140.3689  160.5371 O.3     1  UNL1       -0.4707
      5 C         142.7872  140.7829  161.3643 C.ar    1  UNL1        0.1676
      6 C         143.7357  141.8244  160.8491 C.ar    1  UNL1        0.0860
      7 C         144.9165  142.2383  161.6764 C.ar    1  UNL1        0.0473
      8 C         145.1488  141.6107  163.0188 C.ar    1  UNL1        0.1429
      9 F         146.3296  142.0246  163.8460 F       1  UNL1       -0.2041
     10 C         144.2003  140.5691  163.5340 C.ar    1  UNL1        0.0466
     11 C         144.4326  139.9414  164.8764 C.ar    1  UNL1        0.0097
     12 C         143.4840  138.8999  165.3915 C.ar    1  UNL1        0.0702
     13 C         142.3032  138.4860  164.5643 C.ar    1  UNL1        0.2620
     14 O         141.3547  137.4444  165.0795 O.2     1  UNL1       -0.2669
     15 N         142.0709  139.1136  163.2219 N.ar    1  UNL1       -0.2909
     16 C         143.0195  140.1552  162.7067 C.ar    1  UNL1        0.1000
     17 N         143.5035  142.4521  159.5067 N.pl3   1  UNL1       -0.3050
     18 C         144.1335  142.0267  158.2136 C.3     1  UNL1        0.0910
     19 C         143.6199  142.9270  157.1294 C.3     1  UNL1        0.0244
     20 C         142.6723  143.9089  157.7524 C.3     1  UNL1        0.0344
     21 C         142.6004  143.6154  159.2217 C.3     1  UNL1        0.0921
     22 C         141.9275  144.9938  157.0325 C.3     1  UNL1        0.0406
     23 N         142.5392  146.2020  157.6778 N.3     1  UNL1       -0.3231
     24 C         140.9703  145.6592  156.0887 C.3     1  UNL1        0.0156
     25 C         141.0572  144.1625  156.1373 C.3     1  UNL1        0.0156
     26 H         143.2318  145.9061  158.3656 H       1  UNL1        0.1188
     27 H         141.8108  146.7456  158.1409 H       1  UNL1        0.1188
     28 C         143.7163  138.2722  166.7340 C.2     1  UNL1        0.0775
     29 O         144.6120  137.0754  166.8575 O.co2   1  UNL1       -0.5444
     30 O         143.0529  138.8414  167.9530 O.co2   1  UNL1       -0.5444
@<TRIPOS>UNITY_ATOM_ATTR
29 1
charge -1
@<TRIPOS>BOND
     1     2     1    1
     2     2     3    1
     3     3     4    1
     4     4     5    1
     5     5     6   ar
     6     6    17    1
     7    17    18    1
     8    18    19    1
     9    19    20    1
    10    20    22    1
    11    22    23    1
    12    22    24    1
    13    24    25    1
    14    20    21    1
    15     6     7   ar
    16     7     8   ar
    17     8     9    1
    18     8    10   ar
    19    10    11   ar
    20    11    12   ar
    21    12    28    1
    22    28    29   ar
    23    28    30   ar
    24    12    13   ar
    25    13    14    2
    26    13    15   ar
    27    15    16   ar
    28    15     2    1
    29    16     5   ar
    30    21    17    1
    31    16    10   ar
    32    25    22    1
    33    23    26    1
    34    23    27    1
@<TRIPOS>MOLECULE
*****
 30 34 0 0 0
SMALL
GASTEIGER

@<TRIPOS>ATOM
      1 C         144.3396  143.3141  165.8723 C.3     1  UNL1        0.0285
      2 C         143.1260  142.5773  165.3882 C.3     1  UNL1        0.1321
      3 C         142.8172  142.5228  163.9214 C.3     1  UNL1        0.2279
      4 O         141.6036  141.7860  163.4372 O.3     1  UNL1       -0.4707
      5 C         140.6988  141.1039  164.4200 C.ar    1  UNL1        0.1676
      6 C         139.4852  140.3671  163.9358 C.ar    1  UNL1        0.0860
      7 C         138.5803  139.6849  164.9186 C.ar    1  UNL1        0.0473
      8 C         138.8890  139.7395  166.3855 C.ar    1  UNL1        0.1429
      9 F         137.9841  139.0573  167.3682 F       1  UNL1       -0.2041
     10 C         140.1026  140.4762  166.8696 C.ar    1  UNL1        0.0466
     11 C         140.4113  140.5308  168.3364 C.ar    1  UNL1        0.0097
     12 C         141.6249  141.2675  168.8206 C.ar    1  UNL1        0.0702
     13 C         142.5298  141.9497  167.8378 C.ar    1  UNL1        0.2620
     14 O         143.7434  142.6864  168.3220 O.2     1  UNL1       -0.2669
     15 N         142.2211  141.8952  166.3709 N.ar    1  UNL1       -0.2909
     16 C         141.0075  141.1584  165.8868 C.ar    1  UNL1        0.1000
     17 N         139.1764  140.3126  162.4690 N.pl3   1  UNL1       -0.3050
     18 C         139.0813  139.0703  161.6336 C.3     1  UNL1        0.0910
     19 C         138.7547  139.4806  160.2283 C.3     1  UNL1        0.0244
     20 C         138.6479  140.9765  160.1950 C.3     1  UNL1        0.0344
     21 C         138.9086  141.4906  161.5799 C.3     1  UNL1        0.0921
     22 C         138.3354  141.8115  158.9888 C.3     1  UNL1        0.0406
     23 N         138.7117  143.1681  159.5066 N.3     1  UNL1       -0.3231
     24 C         137.8922  142.1755  157.6029 C.3     1  UNL1        0.0156
     25 C         137.8505  140.7450  158.0522 C.3     1  UNL1        0.0156
     26 H         139.0430  143.0853  160.4677 H       1  UNL1        0.1188
     27 H         137.8965  143.7806  159.4795 H       1  UNL1        0.1188
     28 C         141.9336  141.3221  170.2875 C.2     1  UNL1        0.0775
     29 O         142.7336  140.2260  170.9268 O.co2   1  UNL1       -0.5444
     30 O         141.4424  142.4727  171.1150 O.co2   1  UNL1       -0.5444
@<TRIPOS>UNITY_ATOM_ATTR
29 1
charge -1
@<TRIPOS>BOND
     1     2     1    1
     2     2     3    1
     3     3     4    1
     4     4     5    1
     5     5     6   ar
     6     6    17    1
     7    17    18    1
     8    18    19    1
     9    19    20    1
    10    20    22    1
    11    22    23    1
    12    22    24    1
    13    24    25    1
    14    20    21    1
    15     6     7   ar
    16     7     8   ar
    17     8     9    1
    18     8    10   ar
    19    10    11   ar
    20    11    12   ar
    21    12    28    1
    22    28    29   ar
    23    28    30   ar
    24    12    13   ar
    25    13    14    2
    26    13    15   ar
    27    15    16   ar
    28    15     2    1
    29    16     5   ar
    30    21    17    1
    31    16    10   ar
    32    25    22    1
    33    23    26    1
    34    23    27    1
@<TRIPOS>MOLECULE
*****
 30 34 0 0 0
SMALL
GASTEIGER

@<TRIPOS>ATOM
      1 C         143.5568  142.7685  167.0493 C.3     1  UNL1        0.0285
      2 C         142.8135  141.7995  166.1784 C.3     1  UNL1        0.1321
      3 C         143.2679  141.5558  164.7699 C.3     1  UNL1        0.2279
      4 O         142.5245  140.5868  163.8989 O.3     1  UNL1       -0.4707
      5 C         141.3267  139.8615  164.4366 C.ar    1  UNL1        0.1676
      6 C         140.5833  138.8926  163.5657 C.ar    1  UNL1        0.0860
      7 C         139.3855  138.1672  164.1033 C.ar    1  UNL1        0.0473
      8 C         138.9310  138.4109  165.5119 C.ar    1  UNL1        0.1429
      9 F         137.7332  137.6856  166.0496 F       1  UNL1       -0.2041
     10 C         139.6744  139.3799  166.3828 C.ar    1  UNL1        0.0466
     11 C         139.2199  139.6235  167.7914 C.ar    1  UNL1        0.0097
     12 C         139.9633  140.5925  168.6623 C.ar    1  UNL1        0.0702
     13 C         141.1611  141.3178  168.1247 C.ar    1  UNL1        0.2620
     14 O         141.9045  142.2868  168.9956 O.2     1  UNL1       -0.2669
     15 N         141.6156  141.0742  166.7160 N.ar    1  UNL1       -0.2909
     16 C         140.8723  140.1052  165.8451 C.ar    1  UNL1        0.1000
     17 N         141.0378  138.6489  162.1571 N.pl3   1  UNL1       -0.3050
     18 C         142.2481  137.8647  161.7443 C.3     1  UNL1        0.0910
     19 C         142.3201  137.8778  160.2461 C.3     1  UNL1        0.0244
     20 C         141.1543  138.6700  159.7329 C.3     1  UNL1        0.0344
     21 C         140.3618  139.1466  160.9140 C.3     1  UNL1        0.0921
     22 C         140.8368  138.9385  158.2917 C.3     1  UNL1        0.0406
     23 N         142.2066  138.8081  157.6945 N.3     1  UNL1       -0.3231
     24 C         140.0436  139.2522  157.0579 C.3     1  UNL1        0.0156
     25 C         139.3567  139.1621  158.3884 C.3     1  UNL1        0.0156
     26 H         142.8787  138.5890  158.4298 H       1  UNL1        0.1188
     27 H         142.4672  139.6866  157.2464 H       1  UNL1        0.1188
     28 C         139.5088  140.8362  170.0709 C.2     1  UNL1        0.0775
     29 O         139.2931  139.6787  171.0002 O.co2   1  UNL1       -0.5444
     30 O         139.2700  142.2373  170.5502 O.co2   1  UNL1       -0.5444
@<TRIPOS>UNITY_ATOM_ATTR
29 1
charge -1
@<TRIPOS>BOND
     1     2     1    1
     2     2     3    1
     3     3     4    1
     4     4     5    1
     5     5     6   ar
     6     6    17    1
     7    17    18    1
     8    18    19    1
     9    19    20    1
    10    20    22    1
    11    22    23    1
    12    22    24    1
    13    24    25    1
    14    20    21    1
    15     6     7   ar
    16     7     8   ar
    17     8     9    1
    18     8    10   ar
    19    10    11   ar
    20    11    12   ar
    21    12    28    1
    22    28    29   ar
    23    28    30   ar
    24    12    13   ar
    25    13    14    2
    26    13    15   ar
    27    15    16   ar
    28    15     2    1
    29    16     5   ar
    30    21    17    1
    31    16    10   ar
    32    25    22    1
    33    23    26    1
    34    23    27    1
