@<TRIPOS>MOLECULE
*****
 34 38 0 0 0
SMALL
GASTEIGER

@<TRIPOS>ATOM
      1 C         137.9738  139.4672  162.3813 C.3     1  UNL1        0.0759
      2 C         139.3877  140.1965  166.5907 C.3     1  UNL1        0.0464
      3 C         139.3761  141.3210  165.5980 C.3     1  UNL1        0.0234
      4 C         138.9047  141.0779  164.1949 C.3     1  UNL1        0.0725
      5 N         138.4451  139.7103  163.7844 N.3     1  UNL1       -0.2725
      6 C         138.4568  138.5859  164.7771 C.3     1  UNL1        0.0725
      7 C         138.9281  138.8290  166.1802 C.3     1  UNL1        0.0234
      8 F         144.6834  142.9660  170.4531 F       1  UNL1       -0.2041
      9 C         143.5024  142.3478  169.7652 C.ar    1  UNL1        0.1433
     10 C         143.4378  142.3186  168.2669 C.ar    1  UNL1        0.0299
     11 C         142.2568  141.7004  167.5790 C.ar    1  UNL1        0.0067
     12 C         141.1405  141.1115  168.3895 C.ar    1  UNL1        0.0540
     13 C         139.8591  140.4396  167.9938 C.ar    1  UNL1        0.1003
     14 N         139.1317  140.0535  169.2476 N.ar    1  UNL1       -0.0814
     15 O         139.9636  140.4868  170.4181 O.2     1  UNL1       -0.3536
     16 C         141.2051  141.1406  169.8877 C.ar    1  UNL1        0.1787
     17 C         142.3861  141.7588  170.5756 C.ar    1  UNL1        0.0698
     18 C         138.9609  139.4428  161.2521 C.3     1  UNL1        0.0646
     19 C         139.6473  138.1610  160.8836 C.3     1  UNL1        0.2068
     20 O         140.4719  137.4319  161.9027 O.3     1  UNL1       -0.4754
     21 C         141.6783  138.0914  162.5023 C.ar    1  UNL1        0.1385
     22 C         141.8077  138.2056  163.9924 C.ar    1  UNL1        0.0366
     23 C         143.0141  138.8651  164.5920 C.ar    1  UNL1       -0.0011
     24 C         144.0911  139.4104  163.7016 C.ar    1  UNL1       -0.0206
     25 C         143.9617  139.2962  162.2116 C.ar    1  UNL1       -0.0011
     26 C         142.7553  138.6367  161.6119 C.ar    1  UNL1        0.0366
     27 C         145.2975  140.0699  164.3013 C.3     1  UNL1        0.0437
     28 C         145.8367  141.3347  163.7016 C.3     1  UNL1        0.0769
     29 N         144.9654  142.5522  163.6100 N.3     1  UNL1       -0.2681
     30 C         144.3950  142.9685  162.2867 C.3     1  UNL1        0.1046
     31 C         143.5236  144.1861  162.1950 C.3     1  UNL1        0.1595
     32 O         143.2227  144.9873  163.4269 O.3     1  UNL1       -0.3508
     33 C         143.7931  144.5710  164.7503 C.3     1  UNL1        0.1595
     34 C         144.6644  143.3535  164.8418 C.3     1  UNL1        0.1046
@<TRIPOS>BOND
     1     8     9    1
     2     9    10   ar
     3    10    11   ar
     4    11    12   ar
     5    12    13   ar
     6    13     2    1
     7     2     3    1
     8     3     4    1
     9     4     5    1
    10     5     1    1
    11     1    18    1
    12    18    19    1
    13    19    20    1
    14    20    21    1
    15    21    22   ar
    16    22    23   ar
    17    23    24   ar
    18    24    27    1
    19    27    28    1
    20    28    29    1
    21    29    30    1
    22    30    31    1
    23    31    32    1
    24    32    33    1
    25    33    34    1
    26    24    25   ar
    27    25    26   ar
    28     5     6    1
    29     6     7    1
    30    13    14   ar
    31    14    15   ar
    32    15    16   ar
    33    16    17   ar
    34    17     9   ar
    35    16    12   ar
    36     7     2    1
    37    26    21   ar
    38    34    29    1
@<TRIPOS>MOLECULE
*****
 34 38 0 0 0
SMALL
GASTEIGER

@<TRIPOS>ATOM
      1 C         141.4693  138.0412  161.2466 C.3     1  UNL1        0.0759
      2 C         142.0602  139.3089  165.5238 C.3     1  UNL1        0.0464
      3 C         141.6440  137.9026  165.2090 C.3     1  UNL1        0.0234
      4 C         141.4471  137.4800  163.7833 C.3     1  UNL1        0.0725
      5 N         141.6662  138.4637  162.6723 N.3     1  UNL1       -0.2725
      6 C         142.0824  139.8700  162.9871 C.3     1  UNL1        0.0725
      7 C         142.2793  140.2926  164.4128 C.3     1  UNL1        0.0234
      8 F         140.3614  144.2988  170.3036 F       1  UNL1       -0.2041
      9 C         140.7973  143.1825  169.4015 C.ar    1  UNL1        0.1433
     10 C         140.3411  143.1511  167.9729 C.ar    1  UNL1        0.0299
     11 C         140.7769  142.0348  167.0707 C.ar    1  UNL1        0.0067
     12 C         141.6690  140.9498  167.5972 C.ar    1  UNL1        0.0540
     13 C         142.2571  139.7315  166.9495 C.ar    1  UNL1        0.1003
     14 N         143.0768  139.0098  167.9777 N.ar    1  UNL1       -0.0814
     15 O         142.9953  139.7822  169.2610 O.2     1  UNL1       -0.3536
     16 C         142.1251  140.9812  169.0257 C.ar    1  UNL1        0.1787
     17 C         141.6893  142.0976  169.9279 C.ar    1  UNL1        0.0698
     18 C         140.3376  138.6122  160.4446 C.3     1  UNL1        0.0646
     19 C         138.9498  138.0686  160.6130 C.3     1  UNL1        0.2068
     20 O         138.2396  138.2187  161.9257 O.3     1  UNL1       -0.4754
     21 C         138.1885  139.5565  162.6021 C.ar    1  UNL1        0.1385
     22 C         137.8242  140.7810  161.8158 C.ar    1  UNL1        0.0366
     23 C         137.7730  142.1188  162.4922 C.ar    1  UNL1       -0.0011
     24 C         138.0861  142.2322  163.9547 C.ar    1  UNL1       -0.0206
     25 C         138.4504  141.0078  164.7410 C.ar    1  UNL1       -0.0011
     26 C         138.5015  139.6700  164.0647 C.ar    1  UNL1        0.0366
     27 C         138.0349  143.5701  164.6311 C.3     1  UNL1        0.0437
     28 C         138.5995  144.7791  163.9458 C.3     1  UNL1        0.0769
     29 N         139.9437  144.7067  163.2840 N.3     1  UNL1       -0.2681
     30 C         140.0649  144.9303  161.8057 C.3     1  UNL1        0.1046
     31 C         141.4091  144.8580  161.1439 C.3     1  UNL1        0.1595
     32 O         142.6321  144.5621  161.9604 O.3     1  UNL1       -0.3508
     33 C         142.5109  144.3385  163.4387 C.3     1  UNL1        0.1595
     34 C         141.1667  144.4109  164.1004 C.3     1  UNL1        0.1046
@<TRIPOS>BOND
     1     8     9    1
     2     9    10   ar
     3    10    11   ar
     4    11    12   ar
     5    12    13   ar
     6    13     2    1
     7     2     3    1
     8     3     4    1
     9     4     5    1
    10     5     1    1
    11     1    18    1
    12    18    19    1
    13    19    20    1
    14    20    21    1
    15    21    22   ar
    16    22    23   ar
    17    23    24   ar
    18    24    27    1
    19    27    28    1
    20    28    29    1
    21    29    30    1
    22    30    31    1
    23    31    32    1
    24    32    33    1
    25    33    34    1
    26    24    25   ar
    27    25    26   ar
    28     5     6    1
    29     6     7    1
    30    13    14   ar
    31    14    15   ar
    32    15    16   ar
    33    16    17   ar
    34    17     9   ar
    35    16    12   ar
    36     7     2    1
    37    26    21   ar
    38    34    29    1
@<TRIPOS>MOLECULE
*****
 34 38 0 0 0
SMALL
GASTEIGER

@<TRIPOS>ATOM
      1 C         138.8521  142.8813  160.2911 C.3     1  UNL1        0.0759
      2 C         138.8968  141.0300  164.3925 C.3     1  UNL1        0.0464
      3 C         138.0553  142.2428  164.1261 C.3     1  UNL1        0.0234
      4 C         138.0404  142.8599  162.7590 C.3     1  UNL1        0.0725
      5 N         138.8670  142.2642  161.6582 N.3     1  UNL1       -0.2725
      6 C         139.7085  141.0514  161.9245 C.3     1  UNL1        0.0725
      7 C         139.7234  140.4343  163.2916 C.3     1  UNL1        0.0234
      8 F         141.4332  141.8021  170.9957 F       1  UNL1       -0.2041
      9 C         140.8331  141.5176  169.6507 C.ar    1  UNL1        0.1433
     10 C         141.0909  142.4476  168.5025 C.ar    1  UNL1        0.0299
     11 C         140.4908  142.1631  167.1575 C.ar    1  UNL1        0.0067
     12 C         139.6327  140.9486  166.9609 C.ar    1  UNL1        0.0540
     13 C         138.9117  140.4129  165.7596 C.ar    1  UNL1        0.1003
     14 N         138.2081  139.1518  166.1654 N.ar    1  UNL1       -0.0814
     15 O         138.4943  138.9081  167.6175 O.2     1  UNL1       -0.3536
     16 C         139.3748  140.0186  168.1091 C.ar    1  UNL1        0.1787
     17 C         139.9750  140.3031  169.4541 C.ar    1  UNL1        0.0698
     18 C         140.0951  143.5157  159.7410 C.3     1  UNL1        0.0646
     19 C         140.4874  144.8969  160.1751 C.3     1  UNL1        0.2068
     20 O         141.7763  145.1140  160.9110 O.3     1  UNL1       -0.4754
     21 C         142.2121  144.1389  161.9642 C.ar    1  UNL1        0.1385
     22 C         143.3035  143.1534  161.6682 C.ar    1  UNL1        0.0366
     23 C         143.7393  142.1782  162.7214 C.ar    1  UNL1       -0.0011
     24 C         143.0837  142.1886  164.0704 C.ar    1  UNL1       -0.0206
     25 C         141.9922  143.1741  164.3664 C.ar    1  UNL1       -0.0011
     26 C         141.5564  144.1492  163.3133 C.ar    1  UNL1        0.0366
     27 C         143.5195  141.2134  165.1236 C.3     1  UNL1        0.0437
     28 C         143.9558  139.8326  164.7327 C.3     1  UNL1        0.0769
     29 N         142.9608  138.8641  164.1653 N.3     1  UNL1       -0.2681
     30 C         142.9232  138.6064  162.6881 C.3     1  UNL1        0.1046
     31 C         141.9282  137.6379  162.1206 C.3     1  UNL1        0.1595
     32 O         140.9707  136.9271  163.0305 O.3     1  UNL1       -0.3508
     33 C         141.0082  137.1847  164.5077 C.3     1  UNL1        0.1595
     34 C         142.0032  138.1532  165.0751 C.3     1  UNL1        0.1046
@<TRIPOS>BOND
     1     8     9    1
     2     9    10   ar
     3    10    11   ar
     4    11    12   ar
     5    12    13   ar
     6    13     2    1
     7     2     3    1
     8     3     4    1
     9     4     5    1
    10     5     1    1
    11     1    18    1
    12    18    19    1
    13    19    20    1
    14    20    21    1
    15    21    22   ar
    16    22    23   ar
    17    23    24   ar
    18    24    27    1
    19    27    28    1
    20    28    29    1
    21    29    30    1
    22    30    31    1
    23    31    32    1
    24    32    33    1
    25    33    34    1
    26    24    25   ar
    27    25    26   ar
    28     5     6    1
    29     6     7    1
    30    13    14   ar
    31    14    15   ar
    32    15    16   ar
    33    16    17   ar
    34    17     9   ar
    35    16    12   ar
    36     7     2    1
    37    26    21   ar
    38    34    29    1
@<TRIPOS>MOLECULE
*****
 34 38 0 0 0
SMALL
GASTEIGER

@<TRIPOS>ATOM
      1 C         137.7984  138.7761  161.7162 C.3     1  UNL1        0.0759
      2 C         139.1097  139.6065  165.9401 C.3     1  UNL1        0.0464
      3 C         139.2394  138.2241  165.3726 C.3     1  UNL1        0.0234
      4 C         138.8023  137.9473  163.9646 C.3     1  UNL1        0.0725
      5 N         138.2355  139.0529  163.1242 N.3     1  UNL1       -0.2725
      6 C         138.1058  140.4353  163.6917 C.3     1  UNL1        0.0725
      7 C         138.5429  140.7121  165.0997 C.3     1  UNL1        0.0234
      8 F         144.2122  142.6466  169.8586 F       1  UNL1       -0.2041
      9 C         143.0715  141.9697  169.1582 C.ar    1  UNL1        0.1433
     10 C         143.0325  141.9241  167.6594 C.ar    1  UNL1        0.0299
     11 C         141.8918  141.2471  166.9590 C.ar    1  UNL1        0.0067
     12 C         140.7901  140.6157  167.7574 C.ar    1  UNL1        0.0540
     13 C         139.5467  139.8832  167.3481 C.ar    1  UNL1        0.1003
     14 N         138.8172  139.4761  168.5939 N.ar    1  UNL1       -0.0814
     15 O         139.6097  139.9570  169.7732 O.2     1  UNL1       -0.3536
     16 C         140.8290  140.6613  169.2562 C.ar    1  UNL1        0.1787
     17 C         141.9697  141.3383  169.9565 C.ar    1  UNL1        0.0698
     18 C         138.5363  139.3953  160.5664 C.3     1  UNL1        0.0646
     19 C         139.5471  138.5913  159.8037 C.3     1  UNL1        0.2068
     20 O         141.0035  138.6979  160.1465 O.3     1  UNL1       -0.4754
     21 C         141.4807  139.7854  161.0628 C.ar    1  UNL1        0.1385
     22 C         141.6348  139.5157  162.5303 C.ar    1  UNL1        0.0366
     23 C         142.1120  140.6032  163.4466 C.ar    1  UNL1       -0.0011
     24 C         142.4350  141.9604  162.8954 C.ar    1  UNL1       -0.0206
     25 C         142.2809  142.2301  161.4279 C.ar    1  UNL1       -0.0011
     26 C         141.8038  141.1425  160.5116 C.ar    1  UNL1        0.0366
     27 C         142.9122  143.0479  163.8117 C.3     1  UNL1        0.0437
     28 C         141.9228  143.9706  164.4596 C.3     1  UNL1        0.0769
     29 N         140.7627  144.5003  163.6700 N.3     1  UNL1       -0.2681
     30 C         140.9818  145.5684  162.6398 C.3     1  UNL1        0.1046
     31 C         139.8216  146.0981  161.8502 C.3     1  UNL1        0.1595
     32 O         138.4424  145.5598  162.0908 O.3     1  UNL1       -0.3508
     33 C         138.2233  144.4917  163.1209 C.3     1  UNL1        0.1595
     34 C         139.3834  143.9620  163.9105 C.3     1  UNL1        0.1046
@<TRIPOS>BOND
     1     8     9    1
     2     9    10   ar
     3    10    11   ar
     4    11    12   ar
     5    12    13   ar
     6    13     2    1
     7     2     3    1
     8     3     4    1
     9     4     5    1
    10     5     1    1
    11     1    18    1
    12    18    19    1
    13    19    20    1
    14    20    21    1
    15    21    22   ar
    16    22    23   ar
    17    23    24   ar
    18    24    27    1
    19    27    28    1
    20    28    29    1
    21    29    30    1
    22    30    31    1
    23    31    32    1
    24    32    33    1
    25    33    34    1
    26    24    25   ar
    27    25    26   ar
    28     5     6    1
    29     6     7    1
    30    13    14   ar
    31    14    15   ar
    32    15    16   ar
    33    16    17   ar
    34    17     9   ar
    35    16    12   ar
    36     7     2    1
    37    26    21   ar
    38    34    29    1
@<TRIPOS>MOLECULE
*****
 34 38 0 0 0
SMALL
GASTEIGER

@<TRIPOS>ATOM
      1 C         141.3076  138.2360  160.9151 C.3     1  UNL1        0.0759
      2 C         139.6160  138.8146  165.0447 C.3     1  UNL1        0.0464
      3 C         140.3225  137.5383  164.6957 C.3     1  UNL1        0.0234
      4 C         140.8863  137.3455  163.3191 C.3     1  UNL1        0.0725
      5 N         140.7437  138.4288  162.2916 N.3     1  UNL1       -0.2725
      6 C         140.0372  139.7052  162.6406 C.3     1  UNL1        0.0725
      7 C         139.4733  139.8980  164.0172 C.3     1  UNL1        0.0234
      8 F         140.4748  142.3940  171.1343 F       1  UNL1       -0.2041
      9 C         140.1784  141.5752  169.9129 C.ar    1  UNL1        0.1433
     10 C         141.0450  141.7036  168.6954 C.ar    1  UNL1        0.0299
     11 C         140.7486  140.8848  167.4740 C.ar    1  UNL1        0.0067
     12 C         139.5856  139.9376  167.4702 C.ar    1  UNL1        0.0540
     13 C         139.0521  139.0075  166.4212 C.ar    1  UNL1        0.1003
     14 N         137.8557  138.3042  166.9905 N.ar    1  UNL1       -0.0814
     15 O         137.6498  138.7996  168.3912 O.2     1  UNL1       -0.3536
     16 C         138.7190  139.8091  168.6877 C.ar    1  UNL1        0.1787
     17 C         139.0154  140.6279  169.9091 C.ar    1  UNL1        0.0698
     18 C         142.6848  138.7348  160.5920 C.3     1  UNL1        0.0646
     19 C         143.8777  138.1448  161.2841 C.3     1  UNL1        0.2068
     20 O         144.1375  138.4569  162.7281 O.3     1  UNL1       -0.4754
     21 C         144.1191  139.8796  163.2030 C.ar    1  UNL1        0.1385
     22 C         143.3018  140.2595  164.4021 C.ar    1  UNL1        0.0366
     23 C         143.2835  141.6822  164.8770 C.ar    1  UNL1       -0.0011
     24 C         144.0825  142.7249  164.1529 C.ar    1  UNL1       -0.0206
     25 C         144.8998  142.3450  162.9538 C.ar    1  UNL1       -0.0011
     26 C         144.9181  140.9223  162.4789 C.ar    1  UNL1        0.0366
     27 C         144.0642  144.1476  164.6278 C.3     1  UNL1        0.0437
     28 C         143.2583  145.1746  163.8890 C.3     1  UNL1        0.0769
     29 N         141.9203  144.8093  163.3178 N.3     1  UNL1       -0.2681
     30 C         140.7641  144.5339  164.2328 C.3     1  UNL1        0.1046
     31 C         139.4260  144.1686  163.6617 C.3     1  UNL1        0.1595
     32 O         139.2442  144.0786  162.1755 O.3     1  UNL1       -0.3508
     33 C         140.4004  144.3539  161.2605 C.3     1  UNL1        0.1595
     34 C         141.7384  144.7193  161.8316 C.3     1  UNL1        0.1046
@<TRIPOS>BOND
     1     8     9    1
     2     9    10   ar
     3    10    11   ar
     4    11    12   ar
     5    12    13   ar
     6    13     2    1
     7     2     3    1
     8     3     4    1
     9     4     5    1
    10     5     1    1
    11     1    18    1
    12    18    19    1
    13    19    20    1
    14    20    21    1
    15    21    22   ar
    16    22    23   ar
    17    23    24   ar
    18    24    27    1
    19    27    28    1
    20    28    29    1
    21    29    30    1
    22    30    31    1
    23    31    32    1
    24    32    33    1
    25    33    34    1
    26    24    25   ar
    27    25    26   ar
    28     5     6    1
    29     6     7    1
    30    13    14   ar
    31    14    15   ar
    32    15    16   ar
    33    16    17   ar
    34    17     9   ar
    35    16    12   ar
    36     7     2    1
    37    26    21   ar
    38    34    29    1
@<TRIPOS>MOLECULE
*****
 34 38 0 0 0
SMALL
GASTEIGER

@<TRIPOS>ATOM
      1 C         143.9266  139.8613  161.0954 C.3     1  UNL1        0.0759
      2 C         143.0593  139.7068  165.5084 C.3     1  UNL1        0.0464
      3 C         144.4704  139.8705  165.0266 C.3     1  UNL1        0.0234
      4 C         144.7594  139.9220  163.5556 C.3     1  UNL1        0.0725
      5 N         143.6375  139.8098  162.5664 N.3     1  UNL1       -0.2725
      6 C         142.2264  139.6461  163.0481 C.3     1  UNL1        0.0725
      7 C         141.9374  139.5946  164.5191 C.3     1  UNL1        0.0234
      8 F         139.6133  143.0096  170.7855 F       1  UNL1       -0.2041
      9 C         140.3847  142.2165  169.7726 C.ar    1  UNL1        0.1433
     10 C         140.4026  142.6494  168.3366 C.ar    1  UNL1        0.0299
     11 C         141.1740  141.8563  167.3237 C.ar    1  UNL1        0.0067
     12 C         141.9274  140.6303  167.7469 C.ar    1  UNL1        0.0540
     13 C         142.7702  139.6553  166.9793 C.ar    1  UNL1        0.1003
     14 N         143.2732  138.6198  167.9410 N.ar    1  UNL1       -0.0814
     15 O         142.7413  138.9548  169.3029 O.2     1  UNL1       -0.3536
     16 C         141.9095  140.1974  169.1829 C.ar    1  UNL1        0.1787
     17 C         141.1381  140.9905  170.1958 C.ar    1  UNL1        0.0698
     18 C         143.4826  141.0427  160.2847 C.3     1  UNL1        0.0646
     19 C         144.3139  142.2910  160.2608 C.3     1  UNL1        0.2068
     20 O         144.4566  143.1210  161.5021 O.3     1  UNL1       -0.4754
     21 C         143.2369  143.5431  162.2664 C.ar    1  UNL1        0.1385
     22 C         142.1272  144.2698  161.5659 C.ar    1  UNL1        0.0366
     23 C         140.9075  144.6920  162.3302 C.ar    1  UNL1       -0.0011
     24 C         140.7975  144.3874  163.7948 C.ar    1  UNL1       -0.0206
     25 C         141.9072  143.6607  164.4953 C.ar    1  UNL1       -0.0011
     26 C         143.1269  143.2386  163.7310 C.ar    1  UNL1        0.0366
     27 C         139.5778  144.8096  164.5591 C.3     1  UNL1        0.0437
     28 C         138.2373  144.2348  164.2092 C.3     1  UNL1        0.0769
     29 N         138.1155  142.7858  163.8408 N.3     1  UNL1       -0.2681
     30 C         138.3726  141.7260  164.8706 C.3     1  UNL1        0.1046
     31 C         138.2508  140.2769  164.5023 C.3     1  UNL1        0.1595
     32 O         137.8719  139.8879  163.1040 O.3     1  UNL1       -0.3508
     33 C         137.6148  140.9477  162.0742 C.3     1  UNL1        0.1595
     34 C         137.7366  142.3967  162.4426 C.3     1  UNL1        0.1046
@<TRIPOS>BOND
     1     8     9    1
     2     9    10   ar
     3    10    11   ar
     4    11    12   ar
     5    12    13   ar
     6    13     2    1
     7     2     3    1
     8     3     4    1
     9     4     5    1
    10     5     1    1
    11     1    18    1
    12    18    19    1
    13    19    20    1
    14    20    21    1
    15    21    22   ar
    16    22    23   ar
    17    23    24   ar
    18    24    27    1
    19    27    28    1
    20    28    29    1
    21    29    30    1
    22    30    31    1
    23    31    32    1
    24    32    33    1
    25    33    34    1
    26    24    25   ar
    27    25    26   ar
    28     5     6    1
    29     6     7    1
    30    13    14   ar
    31    14    15   ar
    32    15    16   ar
    33    16    17   ar
    34    17     9   ar
    35    16    12   ar
    36     7     2    1
    37    26    21   ar
    38    34    29    1
@<TRIPOS>MOLECULE
*****
 34 38 0 0 0
SMALL
GASTEIGER

@<TRIPOS>ATOM
      1 C         140.4841  137.7892  162.4998 C.3     1  UNL1        0.0759
      2 C         140.2072  139.5363  166.6376 C.3     1  UNL1        0.0464
      3 C         138.9577  139.1702  165.8929 C.3     1  UNL1        0.0234
      4 C         139.0500  138.5878  164.5136 C.3     1  UNL1        0.0725
      5 N         140.3918  138.3715  163.8791 N.3     1  UNL1       -0.2725
      6 C         141.6413  138.7376  164.6238 C.3     1  UNL1        0.0725
      7 C         141.5490  139.3200  166.0030 C.3     1  UNL1        0.0234
      8 F         143.5085  143.7899  171.2896 F       1  UNL1       -0.2041
      9 C         142.7090  142.8747  170.4102 C.ar    1  UNL1        0.1433
     10 C         143.1977  142.5436  169.0313 C.ar    1  UNL1        0.0299
     11 C         142.3982  141.6284  168.1519 C.ar    1  UNL1        0.0067
     12 C         141.1102  141.0443  168.6515 C.ar    1  UNL1        0.0540
     13 C         140.1149  140.1187  168.0168 C.ar    1  UNL1        0.1003
     14 N         139.0111  139.8777  169.0036 N.ar    1  UNL1       -0.0814
     15 O         139.3242  140.6544  170.2481 O.2     1  UNL1       -0.3536
     16 C         140.6215  141.3754  170.0304 C.ar    1  UNL1        0.1787
     17 C         141.4210  142.2906  170.9098 C.ar    1  UNL1        0.0698
     18 C         140.0141  138.5834  161.3173 C.3     1  UNL1        0.0646
     19 C         138.6392  138.3584  160.7613 C.3     1  UNL1        0.2068
     20 O         137.7171  139.5219  160.5474 O.3     1  UNL1       -0.4754
     21 C         137.9195  140.7914  161.3204 C.ar    1  UNL1        0.1385
     22 C         137.3690  140.9193  162.7099 C.ar    1  UNL1        0.0366
     23 C         137.5714  142.1887  163.4828 C.ar    1  UNL1       -0.0011
     24 C         138.3244  143.3302  162.8663 C.ar    1  UNL1       -0.0206
     25 C         138.8749  143.2023  161.4768 C.ar    1  UNL1       -0.0011
     26 C         138.6724  141.9329  160.7039 C.ar    1  UNL1        0.0366
     27 C         138.5268  144.5997  163.6393 C.3     1  UNL1        0.0437
     28 C         139.5667  144.6629  164.7185 C.3     1  UNL1        0.0769
     29 N         140.9896  144.3012  164.4111 N.3     1  UNL1       -0.2681
     30 C         141.8853  145.2930  163.7300 C.3     1  UNL1        0.1046
     31 C         143.3082  144.9313  163.4226 C.3     1  UNL1        0.1595
     32 O         143.8354  143.5777  163.7963 O.3     1  UNL1       -0.3508
     33 C         142.9397  142.5858  164.4775 C.3     1  UNL1        0.1595
     34 C         141.5168  142.9476  164.7848 C.3     1  UNL1        0.1046
@<TRIPOS>BOND
     1     8     9    1
     2     9    10   ar
     3    10    11   ar
     4    11    12   ar
     5    12    13   ar
     6    13     2    1
     7     2     3    1
     8     3     4    1
     9     4     5    1
    10     5     1    1
    11     1    18    1
    12    18    19    1
    13    19    20    1
    14    20    21    1
    15    21    22   ar
    16    22    23   ar
    17    23    24   ar
    18    24    27    1
    19    27    28    1
    20    28    29    1
    21    29    30    1
    22    30    31    1
    23    31    32    1
    24    32    33    1
    25    33    34    1
    26    24    25   ar
    27    25    26   ar
    28     5     6    1
    29     6     7    1
    30    13    14   ar
    31    14    15   ar
    32    15    16   ar
    33    16    17   ar
    34    17     9   ar
    35    16    12   ar
    36     7     2    1
    37    26    21   ar
    38    34    29    1
@<TRIPOS>MOLECULE
*****
 34 38 0 0 0
SMALL
GASTEIGER

@<TRIPOS>ATOM
      1 C         139.6555  143.0442  160.3914 C.3     1  UNL1        0.0759
      2 C         139.2991  141.2250  164.4918 C.3     1  UNL1        0.0464
      3 C         138.1155  141.9013  163.8659 C.3     1  UNL1        0.0234
      4 C         138.2344  142.5077  162.4991 C.3     1  UNL1        0.0725
      5 N         139.5367  142.4378  161.7582 N.3     1  UNL1       -0.2725
      6 C         140.7203  141.7616  162.3842 C.3     1  UNL1        0.0725
      7 C         140.6014  141.1552  163.7510 C.3     1  UNL1        0.0234
      8 F         141.3552  141.9304  171.2673 F       1  UNL1       -0.2041
      9 C         140.8472  141.6635  169.8814 C.ar    1  UNL1        0.1433
     10 C         141.2356  142.5716  168.7524 C.ar    1  UNL1        0.0299
     11 C         140.7276  142.3047  167.3665 C.ar    1  UNL1        0.0067
     12 C         139.8313  141.1297  167.1095 C.ar    1  UNL1        0.0540
     13 C         139.1802  140.6186  165.8586 C.ar    1  UNL1        0.1003
     14 N         138.3895  139.3946  166.2144 N.ar    1  UNL1       -0.0814
     15 O         138.5518  139.1493  167.6853 O.2     1  UNL1       -0.3536
     16 C         139.4429  140.2217  168.2385 C.ar    1  UNL1        0.1787
     17 C         139.9509  140.4886  169.6244 C.ar    1  UNL1        0.0698
     18 C         138.5166  142.9361  159.4213 C.3     1  UNL1        0.0646
     19 C         138.5905  141.9616  158.2834 C.3     1  UNL1        0.2068
     20 O         138.0858  140.5604  158.4620 O.3     1  UNL1       -0.4754
     21 C         138.4755  139.7720  159.6771 C.ar    1  UNL1        0.1385
     22 C         139.8511  139.1827  159.7794 C.ar    1  UNL1        0.0366
     23 C         140.2408  138.3943  160.9945 C.ar    1  UNL1       -0.0011
     24 C         139.2549  138.1952  162.1073 C.ar    1  UNL1       -0.0206
     25 C         137.8793  138.7846  162.0051 C.ar    1  UNL1       -0.0011
     26 C         137.4896  139.5730  160.7899 C.ar    1  UNL1        0.0366
     27 C         139.6445  137.4069  163.3225 C.3     1  UNL1        0.0437
     28 C         141.0704  136.9834  163.5163 C.3     1  UNL1        0.0769
     29 N         142.0824  137.9671  164.0245 N.3     1  UNL1       -0.2681
     30 C         143.1149  138.5298  163.0932 C.3     1  UNL1        0.1046
     31 C         144.1269  139.5135  163.6013 C.3     1  UNL1        0.1595
     32 O         144.1065  139.9344  165.0409 O.3     1  UNL1       -0.3508
     33 C         143.0741  139.3716  165.9723 C.3     1  UNL1        0.1595
     34 C         142.0621  138.3880  165.4641 C.3     1  UNL1        0.1046
@<TRIPOS>BOND
     1     8     9    1
     2     9    10   ar
     3    10    11   ar
     4    11    12   ar
     5    12    13   ar
     6    13     2    1
     7     2     3    1
     8     3     4    1
     9     4     5    1
    10     5     1    1
    11     1    18    1
    12    18    19    1
    13    19    20    1
    14    20    21    1
    15    21    22   ar
    16    22    23   ar
    17    23    24   ar
    18    24    27    1
    19    27    28    1
    20    28    29    1
    21    29    30    1
    22    30    31    1
    23    31    32    1
    24    32    33    1
    25    33    34    1
    26    24    25   ar
    27    25    26   ar
    28     5     6    1
    29     6     7    1
    30    13    14   ar
    31    14    15   ar
    32    15    16   ar
    33    16    17   ar
    34    17     9   ar
    35    16    12   ar
    36     7     2    1
    37    26    21   ar
    38    34    29    1
@<TRIPOS>MOLECULE
*****
 34 38 0 0 0
SMALL
GASTEIGER

@<TRIPOS>ATOM
      1 C         141.0435  143.9185  158.5963 C.3     1  UNL1        0.0759
      2 C         140.5623  140.3391  161.2808 C.3     1  UNL1        0.0464
      3 C         141.9107  140.9740  161.1119 C.3     1  UNL1        0.0234
      4 C         142.0711  142.1671  160.2170 C.3     1  UNL1        0.0725
      5 N         140.8831  142.7253  159.4911 N.3     1  UNL1       -0.2725
      6 C         139.5347  142.0904  159.6601 C.3     1  UNL1        0.0725
      7 C         139.3743  140.8973  160.5549 C.3     1  UNL1        0.0234
      8 F         137.5464  138.0703  167.3132 F       1  UNL1       -0.2041
      9 C         138.2366  138.4140  166.0265 C.ar    1  UNL1        0.1433
     10 C         138.1255  139.7994  165.4625 C.ar    1  UNL1        0.0299
     11 C         138.8157  140.1431  164.1759 C.ar    1  UNL1        0.0067
     12 C         139.6172  139.1013  163.4532 C.ar    1  UNL1        0.0540
     13 C         140.4019  139.1460  162.1757 C.ar    1  UNL1        0.1003
     14 N         140.9980  137.7881  161.9500 N.ar    1  UNL1       -0.0814
     15 O         140.5818  136.9042  163.0882 O.2     1  UNL1       -0.3536
     16 C         139.7283  137.7158  164.0172 C.ar    1  UNL1        0.1787
     17 C         139.0381  137.3722  165.3039 C.ar    1  UNL1        0.0698
     18 C         140.2877  145.1811  158.8870 C.3     1  UNL1        0.0646
     19 C         140.3530  145.7966  160.2533 C.3     1  UNL1        0.2068
     20 O         139.2459  145.5585  161.2370 O.3     1  UNL1       -0.4754
     21 C         139.5314  144.8589  162.5328 C.ar    1  UNL1        0.1385
     22 C         140.9462  144.7089  163.0081 C.ar    1  UNL1        0.0366
     23 C         141.2318  144.0094  164.3039 C.ar    1  UNL1       -0.0011
     24 C         140.1026  143.4599  165.1243 C.ar    1  UNL1       -0.0206
     25 C         138.6878  143.6100  164.6489 C.ar    1  UNL1       -0.0011
     26 C         138.4022  144.3095  163.3531 C.ar    1  UNL1        0.0366
     27 C         140.3882  142.7604  166.4201 C.3     1  UNL1        0.0437
     28 C         141.7798  142.2943  166.7300 C.3     1  UNL1        0.0769
     29 N         142.3363  141.0838  166.0407 N.3     1  UNL1       -0.2681
     30 C         143.2661  141.2457  164.8749 C.3     1  UNL1        0.1046
     31 C         143.8226  140.0352  164.1855 C.3     1  UNL1        0.1595
     32 O         143.4493  138.6629  164.6622 O.3     1  UNL1       -0.3508
     33 C         142.5195  138.5010  165.8280 C.3     1  UNL1        0.1595
     34 C         141.9630  139.7115  166.5173 C.3     1  UNL1        0.1046
@<TRIPOS>BOND
     1     8     9    1
     2     9    10   ar
     3    10    11   ar
     4    11    12   ar
     5    12    13   ar
     6    13     2    1
     7     2     3    1
     8     3     4    1
     9     4     5    1
    10     5     1    1
    11     1    18    1
    12    18    19    1
    13    19    20    1
    14    20    21    1
    15    21    22   ar
    16    22    23   ar
    17    23    24   ar
    18    24    27    1
    19    27    28    1
    20    28    29    1
    21    29    30    1
    22    30    31    1
    23    31    32    1
    24    32    33    1
    25    33    34    1
    26    24    25   ar
    27    25    26   ar
    28     5     6    1
    29     6     7    1
    30    13    14   ar
    31    14    15   ar
    32    15    16   ar
    33    16    17   ar
    34    17     9   ar
    35    16    12   ar
    36     7     2    1
    37    26    21   ar
    38    34    29    1
