@<TRIPOS>MOLECULE
*****
 29 32 0 0 0
SMALL
GASTEIGER

@<TRIPOS>ATOM
      1 C         139.1545  141.6129  164.5620 C.ar    1  UNL1        0.0681
      2 C         137.9344  142.4194  164.2288 C.ar    1  UNL1        0.0208
      3 C         137.6627  142.8161  162.8080 C.ar    1  UNL1        0.0384
      4 C         138.6110  142.4064  161.7204 C.ar    1  UNL1        0.1386
      5 C         139.8311  141.5999  162.0537 C.ar    1  UNL1        0.0384
      6 C         140.1028  141.2032  163.4745 C.ar    1  UNL1        0.0208
      7 C         138.9474  139.8905  166.4961 C.ar    1  UNL1        0.1263
      8 N         139.2191  139.4937  167.9169 N.ar    1  UNL1       -0.2319
      9 C         139.9696  140.4227  168.8246 C.ar    1  UNL1        0.0872
     10 C         140.2413  140.0259  170.2454 C.ar    1  UNL1        0.0193
     11 C         140.9917  140.9549  171.1531 C.ar    1  UNL1        0.0015
     12 C         141.4705  142.2805  170.6399 C.ar    1  UNL1        0.0003
     13 C         141.1988  142.6773  169.2191 C.ar    1  UNL1        0.0063
     14 C         140.4484  141.7484  168.3115 C.ar    1  UNL1        0.0742
     15 C         140.1767  142.1451  166.8906 C.ar    1  UNL1        0.2669
     16 O         140.6554  143.4708  166.3774 O.2     1  UNL1       -0.2665
     17 N         139.4262  141.2162  165.9829 N.ar    1  UNL1       -0.2626
     18 C         138.1969  138.9616  165.5884 C.3     1  UNL1        0.0644
     19 C         138.9413  137.6965  163.4448 C.3     1  UNL1        0.0005
     20 C         138.9070  137.8103  164.9400 C.3     1  UNL1        0.0079
     21 O         138.3393  142.8031  160.2996 O.3     1  UNL1       -0.4754
     22 C         139.4719  142.9151  159.3225 C.3     1  UNL1        0.2068
     23 C         139.8725  144.2588  158.7895 C.3     1  UNL1        0.0646
     24 C         140.9623  145.0385  159.4636 C.3     1  UNL1        0.0759
     25 N         141.1092  144.9863  160.9555 N.3     1  UNL1       -0.2726
     26 C         142.2088  144.2991  161.7096 C.3     1  UNL1        0.0721
     27 C         141.9615  144.5001  163.1754 C.3     1  UNL1        0.0188
     28 C         140.7091  145.3116  163.3272 C.3     1  UNL1        0.0188
     29 C         140.1823  145.6121  161.9552 C.3     1  UNL1        0.0721
@<TRIPOS>BOND
     1    19    20    1
     2    20    18    1
     3    18     7    1
     4     7     8   ar
     5     8     9   ar
     6     9    10   ar
     7    10    11   ar
     8    11    12   ar
     9    12    13   ar
    10    13    14   ar
    11    14    15   ar
    12    15    16    2
    13    15    17   ar
    14    17     1    1
    15     1     2   ar
    16     2     3   ar
    17     3     4   ar
    18     4    21    1
    19    21    22    1
    20    22    23    1
    21    23    24    1
    22    24    25    1
    23    25    26    1
    24    26    27    1
    25    27    28    1
    26    28    29    1
    27     4     5   ar
    28     5     6   ar
    29    17     7   ar
    30     6     1   ar
    31    14     9   ar
    32    29    25    1
@<TRIPOS>MOLECULE
*****
 29 32 0 0 0
SMALL
GASTEIGER

@<TRIPOS>ATOM
      1 C         139.2513  141.6942  164.7105 C.ar    1  UNL1        0.0681
      2 C         137.9987  142.4956  164.5135 C.ar    1  UNL1        0.0208
      3 C         137.6059  142.9472  163.1381 C.ar    1  UNL1        0.0384
      4 C         138.4655  142.5974  161.9598 C.ar    1  UNL1        0.1386
      5 C         139.7181  141.7960  162.1568 C.ar    1  UNL1        0.0384
      6 C         140.1110  141.3444  163.5322 C.ar    1  UNL1        0.0208
      7 C         139.1096  139.9522  166.6329 C.ar    1  UNL1        0.1263
      8 N         139.5024  139.5005  168.0083 N.ar    1  UNL1       -0.2319
      9 C         140.4298  140.3394  168.8368 C.ar    1  UNL1        0.0872
     10 C         140.8226  139.8877  170.2122 C.ar    1  UNL1        0.0193
     11 C         141.7499  140.7266  171.0407 C.ar    1  UNL1        0.0015
     12 C         142.2844  142.0170  170.4938 C.ar    1  UNL1        0.0003
     13 C         141.8916  142.4686  169.1184 C.ar    1  UNL1        0.0063
     14 C         140.9643  141.6298  168.2899 C.ar    1  UNL1        0.0742
     15 C         140.5714  142.0814  166.9145 C.ar    1  UNL1        0.2669
     16 O         141.1060  143.3718  166.3676 O.2     1  UNL1       -0.2665
     17 N         139.6441  141.2426  166.0860 N.ar    1  UNL1       -0.2626
     18 C         138.1823  139.1133  165.8043 C.3     1  UNL1        0.0644
     19 C         140.1746  137.7564  164.8354 C.3     1  UNL1        0.0005
     20 C         138.7035  137.9022  165.0893 C.3     1  UNL1        0.0079
     21 O         138.0727  143.0490  160.5844 O.3     1  UNL1       -0.4754
     22 C         138.8951  142.6418  159.3978 C.3     1  UNL1        0.2068
     23 C         138.2621  141.8771  158.2734 C.3     1  UNL1        0.0646
     24 C         138.3792  140.3825  158.2233 C.3     1  UNL1        0.0759
     25 N         138.3812  139.5874  159.4952 N.3     1  UNL1       -0.2726
     26 C         139.4854  138.6916  159.9733 C.3     1  UNL1        0.0721
     27 C         139.0661  138.0990  161.2859 C.3     1  UNL1        0.0188
     28 C         137.7027  138.6284  161.6191 C.3     1  UNL1        0.0188
     29 C         137.2794  139.5483  160.5124 C.3     1  UNL1        0.0721
@<TRIPOS>BOND
     1    19    20    1
     2    20    18    1
     3    18     7    1
     4     7     8   ar
     5     8     9   ar
     6     9    10   ar
     7    10    11   ar
     8    11    12   ar
     9    12    13   ar
    10    13    14   ar
    11    14    15   ar
    12    15    16    2
    13    15    17   ar
    14    17     1    1
    15     1     2   ar
    16     2     3   ar
    17     3     4   ar
    18     4    21    1
    19    21    22    1
    20    22    23    1
    21    23    24    1
    22    24    25    1
    23    25    26    1
    24    26    27    1
    25    27    28    1
    26    28    29    1
    27     4     5   ar
    28     5     6   ar
    29    17     7   ar
    30     6     1   ar
    31    14     9   ar
    32    29    25    1
@<TRIPOS>MOLECULE
*****
 29 32 0 0 0
SMALL
GASTEIGER

@<TRIPOS>ATOM
      1 C         140.9052  139.0625  164.7177 C.ar    1  UNL1        0.0681
      2 C         140.1637  137.7916  164.4261 C.ar    1  UNL1        0.0208
      3 C         139.7484  137.4712  163.0208 C.ar    1  UNL1        0.0384
      4 C         140.0745  138.4216  161.9072 C.ar    1  UNL1        0.1386
      5 C         140.8160  139.6925  162.1988 C.ar    1  UNL1        0.0384
      6 C         141.2314  140.0129  163.6040 C.ar    1  UNL1        0.0208
      7 C         142.6828  138.9877  166.6110 C.ar    1  UNL1        0.1263
      8 N         143.0982  139.3081  168.0163 N.ar    1  UNL1       -0.2319
      9 C         142.1513  140.0238  168.9336 C.ar    1  UNL1        0.0872
     10 C         142.5667  140.3442  170.3388 C.ar    1  UNL1        0.0193
     11 C         141.6199  141.0598  171.2560 C.ar    1  UNL1        0.0015
     12 C         140.2577  141.4550  170.7680 C.ar    1  UNL1        0.0003
     13 C         139.8423  141.1347  169.3627 C.ar    1  UNL1        0.0063
     14 C         140.7891  140.4190  168.4455 C.ar    1  UNL1        0.0742
     15 C         140.3738  140.0986  167.0402 C.ar    1  UNL1        0.2669
     16 O         139.0116  140.4938  166.5522 O.2     1  UNL1       -0.2665
     17 N         141.3206  139.3829  166.1230 N.ar    1  UNL1       -0.2626
     18 C         143.6297  138.2720  165.6937 C.3     1  UNL1        0.0644
     19 C         144.7941  139.9491  164.0871 C.3     1  UNL1        0.0005
     20 C         144.8723  138.9607  165.2127 C.3     1  UNL1        0.0079
     21 O         139.6592  138.1012  160.5018 O.3     1  UNL1       -0.4754
     22 C         139.5324  139.1997  159.4883 C.3     1  UNL1        0.2068
     23 C         138.2965  140.0489  159.4533 C.3     1  UNL1        0.0646
     24 C         137.3973  140.1144  160.6522 C.3     1  UNL1        0.0759
     25 N         137.6031  141.1810  161.6866 N.3     1  UNL1       -0.2726
     26 C         137.4232  141.0198  163.1671 C.3     1  UNL1        0.0721
     27 C         137.7338  142.3352  163.8177 C.3     1  UNL1        0.0188
     28 C         138.1057  143.3094  162.7393 C.3     1  UNL1        0.0188
     29 C         138.0249  142.5960  161.4222 C.3     1  UNL1        0.0721
@<TRIPOS>BOND
     1    19    20    1
     2    20    18    1
     3    18     7    1
     4     7     8   ar
     5     8     9   ar
     6     9    10   ar
     7    10    11   ar
     8    11    12   ar
     9    12    13   ar
    10    13    14   ar
    11    14    15   ar
    12    15    16    2
    13    15    17   ar
    14    17     1    1
    15     1     2   ar
    16     2     3   ar
    17     3     4   ar
    18     4    21    1
    19    21    22    1
    20    22    23    1
    21    23    24    1
    22    24    25    1
    23    25    26    1
    24    26    27    1
    25    27    28    1
    26    28    29    1
    27     4     5   ar
    28     5     6   ar
    29    17     7   ar
    30     6     1   ar
    31    14     9   ar
    32    29    25    1
@<TRIPOS>MOLECULE
*****
 29 32 0 0 0
SMALL
GASTEIGER

@<TRIPOS>ATOM
      1 C         141.3531  142.1475  164.2096 C.ar    1  UNL1        0.0681
      2 C         140.5628  143.2762  163.6168 C.ar    1  UNL1        0.0208
      3 C         140.1876  143.2475  162.1648 C.ar    1  UNL1        0.0384
      4 C         140.6026  142.0902  161.3057 C.ar    1  UNL1        0.1386
      5 C         141.3929  140.9615  161.8985 C.ar    1  UNL1        0.0384
      6 C         141.7682  140.9902  163.3505 C.ar    1  UNL1        0.0208
      7 C         143.0997  142.6235  166.0733 C.ar    1  UNL1        0.1263
      8 N         143.4750  142.6522  167.5252 N.ar    1  UNL1       -0.2319
      9 C         142.4788  142.2337  168.5658 C.ar    1  UNL1        0.0872
     10 C         142.8541  142.2624  170.0178 C.ar    1  UNL1        0.0193
     11 C         141.8580  141.8439  171.0582 C.ar    1  UNL1        0.0015
     12 C         140.4866  141.3967  170.6467 C.ar    1  UNL1        0.0003
     13 C         140.1114  141.3680  169.1947 C.ar    1  UNL1        0.0063
     14 C         141.1075  141.7865  168.1543 C.ar    1  UNL1        0.0742
     15 C         140.7322  141.7578  166.7022 C.ar    1  UNL1        0.2669
     16 O         139.3609  141.3105  166.2906 O.2     1  UNL1       -0.2665
     17 N         141.7284  142.1762  165.6617 N.ar    1  UNL1       -0.2626
     18 C         144.0958  143.0420  165.0327 C.3     1  UNL1        0.0644
     19 C         143.9759  144.6244  162.9758 C.3     1  UNL1        0.0005
     20 C         144.0459  144.4279  164.4611 C.3     1  UNL1        0.0079
     21 O         140.2274  142.0614  159.8536 O.3     1  UNL1       -0.4754
     22 C         138.8182  141.7442  159.4493 C.3     1  UNL1        0.2068
     23 C         138.2969  140.3441  159.5823 C.3     1  UNL1        0.0646
     24 C         137.5184  139.9462  160.8012 C.3     1  UNL1        0.0759
     25 N         138.2031  139.2313  161.9281 N.3     1  UNL1       -0.2726
     26 C         139.0329  137.9874  161.8084 C.3     1  UNL1        0.0721
     27 C         139.5209  137.6220  163.1790 C.3     1  UNL1        0.0188
     28 C         138.9927  138.6401  164.1458 C.3     1  UNL1        0.0188
     29 C         138.1783  139.6347  163.3727 C.3     1  UNL1        0.0721
@<TRIPOS>BOND
     1    19    20    1
     2    20    18    1
     3    18     7    1
     4     7     8   ar
     5     8     9   ar
     6     9    10   ar
     7    10    11   ar
     8    11    12   ar
     9    12    13   ar
    10    13    14   ar
    11    14    15   ar
    12    15    16    2
    13    15    17   ar
    14    17     1    1
    15     1     2   ar
    16     2     3   ar
    17     3     4   ar
    18     4    21    1
    19    21    22    1
    20    22    23    1
    21    23    24    1
    22    24    25    1
    23    25    26    1
    24    26    27    1
    25    27    28    1
    26    28    29    1
    27     4     5   ar
    28     5     6   ar
    29    17     7   ar
    30     6     1   ar
    31    14     9   ar
    32    29    25    1
@<TRIPOS>MOLECULE
*****
 29 32 0 0 0
SMALL
GASTEIGER

@<TRIPOS>ATOM
      1 C         140.4599  142.4878  163.1977 C.ar    1  UNL1        0.0681
      2 C         139.3316  142.7173  164.1591 C.ar    1  UNL1        0.0208
      3 C         139.2448  141.9099  165.4202 C.ar    1  UNL1        0.0384
      4 C         140.2863  140.8730  165.7200 C.ar    1  UNL1        0.1386
      5 C         141.4147  140.6435  164.7587 C.ar    1  UNL1        0.0384
      6 C         141.5015  141.4509  163.4976 C.ar    1  UNL1        0.0208
      7 C         141.3080  144.5876  161.9243 C.ar    1  UNL1        0.1263
      8 N         141.3948  145.3951  160.6632 N.ar    1  UNL1       -0.2319
      9 C         140.7202  144.9102  159.4142 C.ar    1  UNL1        0.0872
     10 C         140.8070  145.7176  158.1531 C.ar    1  UNL1        0.0193
     11 C         140.1325  145.2327  156.9042 C.ar    1  UNL1        0.0015
     12 C         139.3712  143.9403  156.9164 C.ar    1  UNL1        0.0003
     13 C         139.2844  143.1328  158.1775 C.ar    1  UNL1        0.0063
     14 C         139.9589  143.6178  159.4264 C.ar    1  UNL1        0.0742
     15 C         139.8722  142.8103  160.6876 C.ar    1  UNL1        0.2669
     16 O         139.1109  141.5179  160.6998 O.2     1  UNL1       -0.2665
     17 N         140.5467  143.2952  161.9365 N.ar    1  UNL1       -0.2626
     18 C         141.9825  145.0726  163.1733 C.3     1  UNL1        0.0644
     19 C         144.2170  143.8887  162.5773 C.3     1  UNL1        0.0005
     20 C         143.4721  144.9636  163.3119 C.3     1  UNL1        0.0079
     21 O         140.1995  140.0655  166.9812 O.3     1  UNL1       -0.4754
     22 C         138.8719  139.5498  167.4517 C.3     1  UNL1        0.2068
     23 C         137.9909  138.7799  166.5131 C.3     1  UNL1        0.0646
     24 C         138.4945  137.5185  165.8766 C.3     1  UNL1        0.0759
     25 N         139.3286  137.5877  164.6319 N.3     1  UNL1       -0.2726
     26 C         140.7387  137.0970  164.4870 C.3     1  UNL1        0.0721
     27 C         141.1807  137.3657  163.0790 C.3     1  UNL1        0.0188
     28 C         140.0438  138.0225  162.3536 C.3     1  UNL1        0.0188
     29 C         138.8991  138.1597  163.3134 C.3     1  UNL1        0.0721
@<TRIPOS>BOND
     1    19    20    1
     2    20    18    1
     3    18     7    1
     4     7     8   ar
     5     8     9   ar
     6     9    10   ar
     7    10    11   ar
     8    11    12   ar
     9    12    13   ar
    10    13    14   ar
    11    14    15   ar
    12    15    16    2
    13    15    17   ar
    14    17     1    1
    15     1     2   ar
    16     2     3   ar
    17     3     4   ar
    18     4    21    1
    19    21    22    1
    20    22    23    1
    21    23    24    1
    22    24    25    1
    23    25    26    1
    24    26    27    1
    25    27    28    1
    26    28    29    1
    27     4     5   ar
    28     5     6   ar
    29    17     7   ar
    30     6     1   ar
    31    14     9   ar
    32    29    25    1
@<TRIPOS>MOLECULE
*****
 29 32 0 0 0
SMALL
GASTEIGER

@<TRIPOS>ATOM
      1 C         141.8233  140.2599  164.2718 C.ar    1  UNL1        0.0681
      2 C         141.3061  141.2701  163.2910 C.ar    1  UNL1        0.0208
      3 C         141.5061  141.0577  161.8197 C.ar    1  UNL1        0.0384
      4 C         142.2232  139.8351  161.3291 C.ar    1  UNL1        0.1386
      5 C         142.7405  138.8248  162.3099 C.ar    1  UNL1        0.0384
      6 C         142.5405  139.0372  163.7812 C.ar    1  UNL1        0.0208
      7 C         140.4693  139.8199  166.4451 C.ar    1  UNL1        0.1263
      8 N         140.2693  140.0324  167.9164 N.ar    1  UNL1       -0.2319
      9 C         141.2232  140.8973  168.6859 C.ar    1  UNL1        0.0872
     10 C         141.0232  141.1097  170.1572 C.ar    1  UNL1        0.0193
     11 C         141.9771  141.9746  170.9266 C.ar    1  UNL1        0.0015
     12 C         143.1311  142.6270  170.2246 C.ar    1  UNL1        0.0003
     13 C         143.3311  142.4146  168.7533 C.ar    1  UNL1        0.0063
     14 C         142.3772  141.5497  167.9839 C.ar    1  UNL1        0.0742
     15 C         142.5772  141.3372  166.5125 C.ar    1  UNL1        0.2669
     16 O         143.7312  141.9897  165.8106 O.2     1  UNL1       -0.2665
     17 N         141.6233  140.4724  165.7432 N.ar    1  UNL1       -0.2626
     18 C         139.5153  138.9551  165.6756 C.3     1  UNL1        0.0644
     19 C         137.5508  137.7551  166.8800 C.3     1  UNL1        0.0005
     20 C         138.0679  138.9038  166.0656 C.3     1  UNL1        0.0079
     21 O         142.4233  139.6226  159.8577 O.3     1  UNL1       -0.4754
     22 C         141.9799  138.3403  159.2181 C.3     1  UNL1        0.2068
     23 C         140.7100  138.2997  158.4209 C.3     1  UNL1        0.0646
     24 C         139.5947  139.2514  158.7379 C.3     1  UNL1        0.0759
     25 N         138.9487  139.2257  160.0914 N.3     1  UNL1       -0.2726
     26 C         139.0196  138.1006  161.0810 C.3     1  UNL1        0.0721
     27 C         138.2331  138.5001  162.2942 C.3     1  UNL1        0.0188
     28 C         137.6759  139.8720  162.0544 C.3     1  UNL1        0.0188
     29 C         138.1183  140.3205  160.6929 C.3     1  UNL1        0.0721
@<TRIPOS>BOND
     1    19    20    1
     2    20    18    1
     3    18     7    1
     4     7     8   ar
     5     8     9   ar
     6     9    10   ar
     7    10    11   ar
     8    11    12   ar
     9    12    13   ar
    10    13    14   ar
    11    14    15   ar
    12    15    16    2
    13    15    17   ar
    14    17     1    1
    15     1     2   ar
    16     2     3   ar
    17     3     4   ar
    18     4    21    1
    19    21    22    1
    20    22    23    1
    21    23    24    1
    22    24    25    1
    23    25    26    1
    24    26    27    1
    25    27    28    1
    26    28    29    1
    27     4     5   ar
    28     5     6   ar
    29    17     7   ar
    30     6     1   ar
    31    14     9   ar
    32    29    25    1
@<TRIPOS>MOLECULE
*****
 29 32 0 0 0
SMALL
GASTEIGER

@<TRIPOS>ATOM
      1 C         142.5208  139.7288  164.8194 C.ar    1  UNL1        0.0681
      2 C         141.6891  138.5933  164.3008 C.ar    1  UNL1        0.0208
      3 C         142.0977  137.8750  163.0490 C.ar    1  UNL1        0.0384
      4 C         143.3380  138.2922  162.3158 C.ar    1  UNL1        0.1386
      5 C         144.1696  139.4277  162.8344 C.ar    1  UNL1        0.0384
      6 C         143.7611  140.1460  164.0862 C.ar    1  UNL1        0.0208
      7 C         141.2972  141.7034  165.9830 C.ar    1  UNL1        0.1263
      8 N         140.8886  142.4217  167.2348 N.ar    1  UNL1       -0.2319
      9 C         141.2948  141.8838  168.5749 C.ar    1  UNL1        0.0872
     10 C         140.8862  142.6022  169.8266 C.ar    1  UNL1        0.0193
     11 C         141.2924  142.0643  171.1666 C.ar    1  UNL1        0.0015
     12 C         142.1073  140.8080  171.2548 C.ar    1  UNL1        0.0003
     13 C         142.5160  140.0897  170.0031 C.ar    1  UNL1        0.0063
     14 C         142.1097  140.6276  168.6631 C.ar    1  UNL1        0.0742
     15 C         142.5184  139.9093  167.4112 C.ar    1  UNL1        0.2669
     16 O         143.3333  138.6530  167.4994 O.2     1  UNL1       -0.2665
     17 N         142.1121  140.4472  166.0713 N.ar    1  UNL1       -0.2626
     18 C         140.8910  142.2413  164.6430 C.3     1  UNL1        0.0644
     19 C         139.0314  143.8608  163.8253 C.3     1  UNL1        0.0005
     20 C         140.3356  143.6300  164.5292 C.3     1  UNL1        0.0079
     21 O         143.7466  137.5738  161.0640 O.3     1  UNL1       -0.4754
     22 C         143.0588  137.8781  159.7662 C.3     1  UNL1        0.2068
     23 C         142.2303  139.1210  159.6298 C.3     1  UNL1        0.0646
     24 C         140.7443  139.0164  159.4539 C.3     1  UNL1        0.0759
     25 N         139.8363  139.1689  160.6381 N.3     1  UNL1       -0.2726
     26 C         139.7412  140.3735  161.5269 C.3     1  UNL1        0.0721
     27 C         138.7101  140.0927  162.5796 C.3     1  UNL1        0.0188
     28 C         138.1680  138.7144  162.3414 C.3     1  UNL1        0.0188
     29 C         138.8640  138.1435  161.1415 C.3     1  UNL1        0.0721
@<TRIPOS>BOND
     1    19    20    1
     2    20    18    1
     3    18     7    1
     4     7     8   ar
     5     8     9   ar
     6     9    10   ar
     7    10    11   ar
     8    11    12   ar
     9    12    13   ar
    10    13    14   ar
    11    14    15   ar
    12    15    16    2
    13    15    17   ar
    14    17     1    1
    15     1     2   ar
    16     2     3   ar
    17     3     4   ar
    18     4    21    1
    19    21    22    1
    20    22    23    1
    21    23    24    1
    22    24    25    1
    23    25    26    1
    24    26    27    1
    25    27    28    1
    26    28    29    1
    27     4     5   ar
    28     5     6   ar
    29    17     7   ar
    30     6     1   ar
    31    14     9   ar
    32    29    25    1
@<TRIPOS>MOLECULE
*****
 29 32 0 0 0
SMALL
GASTEIGER

@<TRIPOS>ATOM
      1 C         142.1017  139.5166  163.2352 C.ar    1  UNL1        0.0681
      2 C         142.5081  140.7298  162.4522 C.ar    1  UNL1        0.0208
      3 C         143.1062  140.5746  161.0855 C.ar    1  UNL1        0.0384
      4 C         143.2980  139.2063  160.5017 C.ar    1  UNL1        0.1386
      5 C         142.8916  137.9931  161.2847 C.ar    1  UNL1        0.0384
      6 C         142.2935  138.1483  162.6514 C.ar    1  UNL1        0.0208
      7 C         140.0540  140.0282  164.7503 C.ar    1  UNL1        0.1263
      8 N         139.4558  140.1834  166.1170 N.ar    1  UNL1       -0.2319
      9 C         140.3071  139.9822  167.3356 C.ar    1  UNL1        0.0872
     10 C         139.7089  140.1375  168.7023 C.ar    1  UNL1        0.0193
     11 C         140.5602  139.9363  169.9208 C.ar    1  UNL1        0.0015
     12 C         142.0096  139.5799  169.7726 C.ar    1  UNL1        0.0003
     13 C         142.6078  139.4247  168.4059 C.ar    1  UNL1        0.0063
     14 C         141.7566  139.6258  167.1874 C.ar    1  UNL1        0.0742
     15 C         142.3548  139.4706  165.8205 C.ar    1  UNL1        0.2669
     16 O         143.8042  139.1142  165.6723 O.2     1  UNL1       -0.2665
     17 N         141.5035  139.6718  164.6020 N.ar    1  UNL1       -0.2626
     18 C         139.2027  140.2294  163.5317 C.3     1  UNL1        0.0644
     19 C         138.7781  137.7099  163.0609 C.3     1  UNL1        0.0005
     20 C         138.2972  139.1307  163.0596 C.3     1  UNL1        0.0079
     21 O         143.8962  139.0511  159.1348 O.3     1  UNL1       -0.4754
     22 C         143.0220  138.6921  157.9700 C.3     1  UNL1        0.2068
     23 C         142.6036  137.2675  157.7572 C.3     1  UNL1        0.0646
     24 C         143.0903  136.5145  156.5546 C.3     1  UNL1        0.0759
     25 N         142.7828  135.0536  156.4094 N.3     1  UNL1       -0.2726
     26 C         141.7469  134.4563  155.5036 C.3     1  UNL1        0.0721
     27 C         141.7810  132.9670  155.6789 C.3     1  UNL1        0.0188
     28 C         142.8380  132.6437  156.6930 C.3     1  UNL1        0.0188
     29 C         143.4571  133.9333  157.1445 C.3     1  UNL1        0.0721
@<TRIPOS>BOND
     1    19    20    1
     2    20    18    1
     3    18     7    1
     4     7     8   ar
     5     8     9   ar
     6     9    10   ar
     7    10    11   ar
     8    11    12   ar
     9    12    13   ar
    10    13    14   ar
    11    14    15   ar
    12    15    16    2
    13    15    17   ar
    14    17     1    1
    15     1     2   ar
    16     2     3   ar
    17     3     4   ar
    18     4    21    1
    19    21    22    1
    20    22    23    1
    21    23    24    1
    22    24    25    1
    23    25    26    1
    24    26    27    1
    25    27    28    1
    26    28    29    1
    27     4     5   ar
    28     5     6   ar
    29    17     7   ar
    30     6     1   ar
    31    14     9   ar
    32    29    25    1
@<TRIPOS>MOLECULE
*****
 29 32 0 0 0
SMALL
GASTEIGER

@<TRIPOS>ATOM
      1 C         142.6443  140.3493  163.8647 C.ar    1  UNL1        0.0681
      2 C         143.6486  139.2492  163.6883 C.ar    1  UNL1        0.0208
      3 C         144.0405  138.8054  162.3101 C.ar    1  UNL1        0.0384
      4 C         143.4282  139.4618  161.1084 C.ar    1  UNL1        0.1386
      5 C         142.4240  140.5620  161.2848 C.ar    1  UNL1        0.0384
      6 C         142.0321  141.0058  162.6630 C.ar    1  UNL1        0.0208
      7 C         143.0259  141.8797  165.9293 C.ar    1  UNL1        0.1263
      8 N         142.6340  142.3235  167.3075 N.ar    1  UNL1       -0.2319
      9 C         141.4686  141.6807  167.9995 C.ar    1  UNL1        0.0872
     10 C         141.0768  142.1244  169.3776 C.ar    1  UNL1        0.0193
     11 C         139.9114  141.4816  170.0695 C.ar    1  UNL1        0.0015
     12 C         139.1380  140.3950  169.3832 C.ar    1  UNL1        0.0003
     13 C         139.5299  139.9512  168.0050 C.ar    1  UNL1        0.0063
     14 C         140.6952  140.5940  167.3131 C.ar    1  UNL1        0.0742
     15 C         141.0871  140.1503  165.9349 C.ar    1  UNL1        0.2669
     16 O         140.3137  139.0636  165.2486 O.2     1  UNL1       -0.2665
     17 N         142.2524  140.7931  165.2430 N.ar    1  UNL1       -0.2626
     18 C         144.1912  142.5226  165.2374 C.3     1  UNL1        0.0644
     19 C         143.4778  144.3549  163.5393 C.3     1  UNL1        0.0005
     20 C         144.1223  143.9665  164.8369 C.3     1  UNL1        0.0079
     21 O         143.8201  139.0180  159.7301 O.3     1  UNL1       -0.4754
     22 C         142.8195  139.0664  158.6138 C.3     1  UNL1        0.2068
     23 C         141.6121  138.1771  158.6497 C.3     1  UNL1        0.0646
     24 C         140.2376  138.7765  158.6118 C.3     1  UNL1        0.0759
     25 N         139.4463  138.9190  159.8781 N.3     1  UNL1       -0.2726
     26 C         139.6110  138.0916  161.1185 C.3     1  UNL1        0.0721
     27 C         138.6179  138.5750  162.1334 C.3     1  UNL1        0.0188
     28 C         137.8394  139.7012  161.5203 C.3     1  UNL1        0.0188
     29 C         138.3514  139.9137  160.1264 C.3     1  UNL1        0.0721
@<TRIPOS>BOND
     1    19    20    1
     2    20    18    1
     3    18     7    1
     4     7     8   ar
     5     8     9   ar
     6     9    10   ar
     7    10    11   ar
     8    11    12   ar
     9    12    13   ar
    10    13    14   ar
    11    14    15   ar
    12    15    16    2
    13    15    17   ar
    14    17     1    1
    15     1     2   ar
    16     2     3   ar
    17     3     4   ar
    18     4    21    1
    19    21    22    1
    20    22    23    1
    21    23    24    1
    22    24    25    1
    23    25    26    1
    24    26    27    1
    25    27    28    1
    26    28    29    1
    27     4     5   ar
    28     5     6   ar
    29    17     7   ar
    30     6     1   ar
    31    14     9   ar
    32    29    25    1
