@<TRIPOS>MOLECULE
*****
 29 32 0 0 0
SMALL
GASTEIGER

@<TRIPOS>ATOM
      1 C         143.6936  142.5210  165.7381 C.3     1  UNL1        0.0324
      2 C         143.2083  141.2342  165.1394 C.ar    1  UNL1       -0.0071
      3 C         143.3059  141.0117  163.6593 C.ar    1  UNL1        0.0115
      4 C         142.8206  139.7248  163.0606 C.ar    1  UNL1        0.0476
      5 C         142.2375  138.6604  163.9421 C.ar    1  UNL1        0.0158
      6 C         142.1398  138.8829  165.4223 C.ar    1  UNL1        0.0156
      7 C         142.6252  140.1698  166.0209 C.ar    1  UNL1        0.0466
      8 N         142.9183  139.5024  161.5804 N.pl3   1  UNL1       -0.3061
      9 C         143.9313  140.1180  160.6612 C.3     1  UNL1        0.0923
     10 C         143.6592  139.6213  159.2722 C.3     1  UNL1        0.0391
     11 C         142.4780  138.6987  159.3329 C.3     1  UNL1        0.0790
     12 C         142.0201  138.6252  160.7594 C.3     1  UNL1        0.1067
     13 N         141.8627  137.9764  158.1711 N.3     1  UNL1       -0.2736
     14 C         142.5343  136.9371  157.3234 C.3     1  UNL1        0.0721
     15 C         141.5545  136.4850  156.2814 C.3     1  UNL1        0.0187
     16 C         140.2775  137.2450  156.4852 C.3     1  UNL1        0.0174
     17 C         140.4680  138.1668  157.6531 C.3     1  UNL1        0.0576
     18 C         139.4436  139.1128  158.2059 C.3     1  UNL1        0.0173
     19 N         142.5275  140.3922  167.5012 N.am    1  UNL1       -0.2805
     20 C         141.3765  141.1690  168.0685 C.2     1  UNL1        0.2535
     21 O         140.3233  141.7234  167.1556 O.2     1  UNL1       -0.2697
     22 H         143.2188  140.0284  168.1003 H       1  UNL1        0.1552
     23 C         141.2788  141.3915  169.5487 C.ar    1  UNL1        0.1032
     24 C         142.3203  142.0369  170.4140 C.ar    1  UNL1        0.1050
     25 C         143.6424  142.5732  169.9509 C.3     1  UNL1        0.0558
     26 N         141.8076  142.0518  171.8235 N.ar    1  UNL1       -0.0816
     27 O         140.4492  141.4156  171.8295 O.2     1  UNL1       -0.3579
     28 C         140.1224  141.0075  170.4235 C.ar    1  UNL1        0.1588
     29 C         138.8607  140.3337  169.9717 C.3     1  UNL1        0.0755
@<TRIPOS>BOND
     1     1     2    1
     2     2     3   ar
     3     3     4   ar
     4     4     8    1
     5     8     9    1
     6     9    10    1
     7    10    11    1
     8    11    13    1
     9    13    14    1
    10    14    15    1
    11    15    16    1
    12    16    17    1
    13    17    18    1
    14    11    12    1
    15     4     5   ar
    16     5     6   ar
    17     6     7   ar
    18     7    19    1
    19    19    20   am
    20    20    21    2
    21    20    23    1
    22    23    24   ar
    23    24    25    1
    24    24    26   ar
    25    26    27   ar
    26    27    28   ar
    27    28    29    1
    28     7     2   ar
    29    28    23   ar
    30    12     8    1
    31    17    13    1
    32    19    22    1
@<TRIPOS>MOLECULE
*****
 29 32 0 0 0
SMALL
GASTEIGER

@<TRIPOS>ATOM
      1 C         139.5074  139.5961  165.5737 C.3     1  UNL1        0.0324
      2 C         140.8938  139.5849  165.0012 C.ar    1  UNL1       -0.0071
      3 C         141.0939  139.4183  163.5240 C.ar    1  UNL1        0.0115
      4 C         142.4803  139.4070  162.9515 C.ar    1  UNL1        0.0476
      5 C         143.6666  139.5624  163.8562 C.ar    1  UNL1        0.0158
      6 C         143.4665  139.7290  165.3334 C.ar    1  UNL1        0.0156
      7 C         142.0801  139.7402  165.9059 C.ar    1  UNL1        0.0466
      8 N         142.6804  139.2404  161.4742 N.pl3   1  UNL1       -0.3061
      9 C         143.6200  140.0351  160.6166 C.3     1  UNL1        0.0923
     10 C         143.4963  139.5357  159.2076 C.3     1  UNL1        0.0391
     11 C         142.4802  138.4323  159.1944 C.3     1  UNL1        0.0790
     12 C         141.9760  138.2498  160.5953 C.3     1  UNL1        0.1067
     13 N         142.0448  137.6490  157.9916 N.3     1  UNL1       -0.2736
     14 C         142.8203  136.5505  157.3268 C.3     1  UNL1        0.0721
     15 C         142.0122  136.0492  156.1667 C.3     1  UNL1        0.0187
     16 C         140.7374  136.8379  156.1145 C.3     1  UNL1        0.0174
     17 C         140.7575  137.8266  157.2424 C.3     1  UNL1        0.0576
     18 C         139.6796  138.8188  157.5645 C.3     1  UNL1        0.0173
     19 N         141.8800  139.9068  167.3832 N.am    1  UNL1       -0.2805
     20 C         141.6823  141.2758  167.9636 C.2     1  UNL1        0.2535
     21 O         141.6847  142.4781  167.0667 O.2     1  UNL1       -0.2697
     22 H         141.8784  139.1177  167.9718 H       1  UNL1        0.1552
     23 C         141.4822  141.4424  169.4408 C.ar    1  UNL1        0.1032
     24 C         140.2673  141.0302  170.2181 C.ar    1  UNL1        0.1050
     25 C         139.0392  140.3790  169.6545 C.3     1  UNL1        0.0558
     26 N         140.4962  141.3835  171.6578 N.ar    1  UNL1       -0.0816
     27 O         141.8526  142.0141  171.7704 O.2     1  UNL1       -0.3579
     28 C         142.4620  142.0504  170.4001 C.ar    1  UNL1        0.1588
     29 C         143.8138  142.5986  170.0507 C.3     1  UNL1        0.0755
@<TRIPOS>BOND
     1     1     2    1
     2     2     3   ar
     3     3     4   ar
     4     4     8    1
     5     8     9    1
     6     9    10    1
     7    10    11    1
     8    11    13    1
     9    13    14    1
    10    14    15    1
    11    15    16    1
    12    16    17    1
    13    17    18    1
    14    11    12    1
    15     4     5   ar
    16     5     6   ar
    17     6     7   ar
    18     7    19    1
    19    19    20   am
    20    20    21    2
    21    20    23    1
    22    23    24   ar
    23    24    25    1
    24    24    26   ar
    25    26    27   ar
    26    27    28   ar
    27    28    29    1
    28     7     2   ar
    29    28    23   ar
    30    12     8    1
    31    17    13    1
    32    19    22    1
@<TRIPOS>MOLECULE
*****
 29 32 0 0 0
SMALL
GASTEIGER

@<TRIPOS>ATOM
      1 C         138.5206  138.8421  166.1409 C.3     1  UNL1        0.0324
      2 C         139.7370  139.0492  165.2878 C.ar    1  UNL1       -0.0071
      3 C         139.6632  138.8177  163.8077 C.ar    1  UNL1        0.0115
      4 C         140.8795  139.0248  162.9546 C.ar    1  UNL1        0.0476
      5 C         142.1696  139.4633  163.5818 C.ar    1  UNL1        0.0158
      6 C         142.2434  139.6947  165.0619 C.ar    1  UNL1        0.0156
      7 C         141.0270  139.4876  165.9150 C.ar    1  UNL1        0.0466
      8 N         140.8057  138.7934  161.4744 N.pl3   1  UNL1       -0.3061
      9 C         139.5505  138.6468  160.6664 C.3     1  UNL1        0.0923
     10 C         139.9432  138.4307  159.2349 C.3     1  UNL1        0.0391
     11 C         141.4412  138.4438  159.1582 C.3     1  UNL1        0.0790
     12 C         141.9742  138.6679  160.5423 C.3     1  UNL1        0.1067
     13 N         142.2620  138.2642  157.9156 N.3     1  UNL1       -0.2736
     14 C         142.5282  136.9650  157.2150 C.3     1  UNL1        0.0721
     15 C         143.3914  137.2502  156.0218 C.3     1  UNL1        0.0187
     16 C         143.6586  138.7257  155.9851 C.3     1  UNL1        0.0174
     17 C         142.9606  139.3524  157.1556 C.3     1  UNL1        0.0576
     18 C         142.9611  140.8113  157.5047 C.3     1  UNL1        0.0173
     19 N         141.1009  139.7191  167.3952 N.am    1  UNL1       -0.2805
     20 C         140.9575  141.1071  167.9454 C.2     1  UNL1        0.2535
     21 O         140.7403  142.2638  167.0154 O.2     1  UNL1       -0.2697
     22 H         141.2434  138.9599  168.0056 H       1  UNL1        0.1552
     23 C         141.0313  141.3386  169.4256 C.ar    1  UNL1        0.1032
     24 C         142.1796  141.9591  170.1648 C.ar    1  UNL1        0.1050
     25 C         143.4556  142.4571  169.5536 C.3     1  UNL1        0.0558
     26 N         141.8277  141.9941  171.6226 N.ar    1  UNL1       -0.0816
     27 O         140.4620  141.3952  171.7843 O.2     1  UNL1       -0.3579
     28 C         139.9698  140.9900  170.4264 C.ar    1  UNL1        0.1588
     29 C         138.6481  140.3489  170.1228 C.3     1  UNL1        0.0755
@<TRIPOS>BOND
     1     1     2    1
     2     2     3   ar
     3     3     4   ar
     4     4     8    1
     5     8     9    1
     6     9    10    1
     7    10    11    1
     8    11    13    1
     9    13    14    1
    10    14    15    1
    11    15    16    1
    12    16    17    1
    13    17    18    1
    14    11    12    1
    15     4     5   ar
    16     5     6   ar
    17     6     7   ar
    18     7    19    1
    19    19    20   am
    20    20    21    2
    21    20    23    1
    22    23    24   ar
    23    24    25    1
    24    24    26   ar
    25    26    27   ar
    26    27    28   ar
    27    28    29    1
    28     7     2   ar
    29    28    23   ar
    30    12     8    1
    31    17    13    1
    32    19    22    1
@<TRIPOS>MOLECULE
*****
 29 32 0 0 0
SMALL
GASTEIGER

@<TRIPOS>ATOM
      1 C         143.0882  138.7855  165.8796 C.3     1  UNL1        0.0324
      2 C         143.2317  140.1059  165.1825 C.ar    1  UNL1       -0.0071
      3 C         143.4552  140.1509  163.6999 C.ar    1  UNL1        0.0115
      4 C         143.5986  141.4713  163.0028 C.ar    1  UNL1        0.0476
      5 C         143.5186  142.7467  163.7883 C.ar    1  UNL1        0.0158
      6 C         143.2951  142.7017  165.2708 C.ar    1  UNL1        0.0156
      7 C         143.1516  141.3813  165.9679 C.ar    1  UNL1        0.0466
      8 N         143.8222  141.5163  161.5202 N.pl3   1  UNL1       -0.3061
      9 C         144.3033  142.7014  160.7366 C.3     1  UNL1        0.0923
     10 C         144.3823  142.3016  159.2931 C.3     1  UNL1        0.0391
     11 C         143.9499  140.8693  159.1845 C.3     1  UNL1        0.0790
     12 C         143.6038  140.3840  160.5609 C.3     1  UNL1        0.1067
     13 N         143.8766  140.0638  157.9212 N.3     1  UNL1       -0.2736
     14 C         142.9720  138.8933  157.6732 C.3     1  UNL1        0.0721
     15 C         143.2314  138.3935  156.2829 C.3     1  UNL1        0.0187
     16 C         144.2963  139.2551  155.6717 C.3     1  UNL1        0.0174
     17 C         144.6950  140.2875  156.6843 C.3     1  UNL1        0.0576
     18 C         145.7305  141.3559  156.4933 C.3     1  UNL1        0.0173
     19 N         142.9281  141.3363  167.4505 N.am    1  UNL1       -0.2805
     20 C         141.5598  141.5891  168.0107 C.2     1  UNL1        0.2535
     21 O         140.4150  141.8868  167.0884 O.2     1  UNL1       -0.2697
     22 H         143.6795  141.1409  168.0559 H       1  UNL1        0.1552
     23 C         141.3363  141.5441  169.4934 C.ar    1  UNL1        0.1032
     24 C         140.7589  142.6457  170.3318 C.ar    1  UNL1        0.1050
     25 C         140.3036  143.9857  169.8348 C.3     1  UNL1        0.0558
     26 N         140.7167  142.1721  171.7544 N.ar    1  UNL1       -0.0816
     27 O         141.2681  140.7776  171.7952 O.2     1  UNL1       -0.3579
     28 C         141.6510  140.3895  170.3977 C.ar    1  UNL1        0.1588
     29 C         142.2445  139.0773  169.9784 C.3     1  UNL1        0.0755
@<TRIPOS>BOND
     1     1     2    1
     2     2     3   ar
     3     3     4   ar
     4     4     8    1
     5     8     9    1
     6     9    10    1
     7    10    11    1
     8    11    13    1
     9    13    14    1
    10    14    15    1
    11    15    16    1
    12    16    17    1
    13    17    18    1
    14    11    12    1
    15     4     5   ar
    16     5     6   ar
    17     6     7   ar
    18     7    19    1
    19    19    20   am
    20    20    21    2
    21    20    23    1
    22    23    24   ar
    23    24    25    1
    24    24    26   ar
    25    26    27   ar
    26    27    28   ar
    27    28    29    1
    28     7     2   ar
    29    28    23   ar
    30    12     8    1
    31    17    13    1
    32    19    22    1
@<TRIPOS>MOLECULE
*****
 29 32 0 0 0
SMALL
GASTEIGER

@<TRIPOS>ATOM
      1 C         143.3634  138.8560  165.9650 C.3     1  UNL1        0.0324
      2 C         142.0797  139.0645  165.2176 C.ar    1  UNL1       -0.0071
      3 C         142.0276  138.8310  163.7368 C.ar    1  UNL1        0.0115
      4 C         140.7439  139.0395  162.9893 C.ar    1  UNL1        0.0476
      5 C         139.5124  139.4815  163.7227 C.ar    1  UNL1        0.0158
      6 C         139.5645  139.7150  165.2034 C.ar    1  UNL1        0.0156
      7 C         140.8482  139.5065  165.9509 C.ar    1  UNL1        0.0466
      8 N         140.6919  138.8060  161.5085 N.pl3   1  UNL1       -0.3061
      9 C         139.4488  138.6515  160.6834 C.3     1  UNL1        0.0923
     10 C         139.8624  138.4360  159.2578 C.3     1  UNL1        0.0391
     11 C         141.3613  138.4574  159.2017 C.3     1  UNL1        0.0790
     12 C         141.8739  138.6861  160.5928 C.3     1  UNL1        0.1067
     13 N         142.2001  138.2810  157.9708 N.3     1  UNL1       -0.2736
     14 C         142.5606  136.9739  157.3295 C.3     1  UNL1        0.0721
     15 C         143.4091  137.2659  156.1274 C.3     1  UNL1        0.0187
     16 C         143.5729  138.7535  156.0259 C.3     1  UNL1        0.0174
     17 C         142.8257  139.3809  157.1652 C.3     1  UNL1        0.0576
     18 C         142.7223  140.8501  157.4491 C.3     1  UNL1        0.0173
     19 N         140.9002  139.7400  167.4317 N.am    1  UNL1       -0.2805
     20 C         141.1020  141.1271  167.9656 C.2     1  UNL1        0.2535
     21 O         141.2517  142.2808  167.0188 O.2     1  UNL1       -0.2697
     22 H         140.8019  138.9828  168.0532 H       1  UNL1        0.1552
     23 C         141.1541  141.3606  169.4465 C.ar    1  UNL1        0.1032
     24 C         140.0569  141.0630  170.4251 C.ar    1  UNL1        0.1050
     25 C         138.7151  140.4797  170.0947 C.3     1  UNL1        0.0558
     26 N         140.5372  141.4512  171.7921 N.ar    1  UNL1       -0.0816
     27 O         141.9312  141.9887  171.6583 O.2     1  UNL1       -0.3579
     28 C         142.3125  141.9327  170.2086 C.ar    1  UNL1        0.1588
     29 C         143.6221  142.3718  169.6237 C.3     1  UNL1        0.0755
@<TRIPOS>BOND
     1     1     2    1
     2     2     3   ar
     3     3     4   ar
     4     4     8    1
     5     8     9    1
     6     9    10    1
     7    10    11    1
     8    11    13    1
     9    13    14    1
    10    14    15    1
    11    15    16    1
    12    16    17    1
    13    17    18    1
    14    11    12    1
    15     4     5   ar
    16     5     6   ar
    17     6     7   ar
    18     7    19    1
    19    19    20   am
    20    20    21    2
    21    20    23    1
    22    23    24   ar
    23    24    25    1
    24    24    26   ar
    25    26    27   ar
    26    27    28   ar
    27    28    29    1
    28     7     2   ar
    29    28    23   ar
    30    12     8    1
    31    17    13    1
    32    19    22    1
@<TRIPOS>MOLECULE
*****
 29 32 0 0 0
SMALL
GASTEIGER

@<TRIPOS>ATOM
      1 C         142.9854  142.3566  165.3700 C.3     1  UNL1        0.0324
      2 C         141.6268  142.6900  164.8287 C.ar    1  UNL1       -0.0071
      3 C         141.4176  142.8079  163.3481 C.ar    1  UNL1        0.0115
      4 C         140.0589  143.1413  162.8069 C.ar    1  UNL1        0.0476
      5 C         138.9095  143.3568  163.7462 C.ar    1  UNL1        0.0158
      6 C         139.1188  143.2389  165.2268 C.ar    1  UNL1        0.0156
      7 C         140.4774  142.9054  165.7681 C.ar    1  UNL1        0.0466
      8 N         139.8498  143.2593  161.3261 N.pl3   1  UNL1       -0.3061
      9 C         138.8370  142.5056  160.5160 C.3     1  UNL1        0.0923
     10 C         138.9780  142.9322  159.0848 C.3     1  UNL1        0.0391
     11 C         140.0779  143.9494  159.0105 C.3     1  UNL1        0.0790
     12 C         140.6166  144.1516  160.3957 C.3     1  UNL1        0.1067
     13 N         140.5551  144.6428  157.7689 N.3     1  UNL1       -0.2736
     14 C         140.1217  145.9979  157.2940 C.3     1  UNL1        0.0721
     15 C         140.8483  146.2954  156.0158 C.3     1  UNL1        0.0187
     16 C         141.7308  145.1240  155.7009 C.3     1  UNL1        0.0174
     17 C         141.5496  144.1026  156.7844 C.3     1  UNL1        0.0576
     18 C         142.2414  142.7743  156.8686 C.3     1  UNL1        0.0173
     19 N         140.6866  142.7875  167.2488 N.am    1  UNL1       -0.2805
     20 C         140.6814  141.4371  167.9018 C.2     1  UNL1        0.2535
     21 O         140.4671  140.2046  167.0741 O.2     1  UNL1       -0.2697
     22 H         140.8272  143.5964  167.7920 H       1  UNL1        0.1552
     23 C         140.8906  141.3192  169.3825 C.ar    1  UNL1        0.1032
     24 C         142.1283  141.7140  170.1323 C.ar    1  UNL1        0.1050
     25 C         143.3740  142.2962  169.5330 C.3     1  UNL1        0.0558
     26 N         141.9014  141.4246  171.5865 N.ar    1  UNL1       -0.0816
     27 O         140.5235  140.8508  171.7354 O.2     1  UNL1       -0.3579
     28 C         139.8987  140.7856  170.3732 C.ar    1  UNL1        0.1588
     29 C         138.5236  140.2764  170.0573 C.3     1  UNL1        0.0755
@<TRIPOS>BOND
     1     1     2    1
     2     2     3   ar
     3     3     4   ar
     4     4     8    1
     5     8     9    1
     6     9    10    1
     7    10    11    1
     8    11    13    1
     9    13    14    1
    10    14    15    1
    11    15    16    1
    12    16    17    1
    13    17    18    1
    14    11    12    1
    15     4     5   ar
    16     5     6   ar
    17     6     7   ar
    18     7    19    1
    19    19    20   am
    20    20    21    2
    21    20    23    1
    22    23    24   ar
    23    24    25    1
    24    24    26   ar
    25    26    27   ar
    26    27    28   ar
    27    28    29    1
    28     7     2   ar
    29    28    23   ar
    30    12     8    1
    31    17    13    1
    32    19    22    1
@<TRIPOS>MOLECULE
*****
 29 32 0 0 0
SMALL
GASTEIGER

@<TRIPOS>ATOM
      1 C         142.8832  138.9879  165.8642 C.3     1  UNL1        0.0324
      2 C         143.0944  140.3015  165.1716 C.ar    1  UNL1       -0.0071
      3 C         143.2993  140.3418  163.6862 C.ar    1  UNL1        0.0115
      4 C         143.5105  141.6554  162.9936 C.ar    1  UNL1        0.0476
      5 C         143.5168  142.9288  163.7863 C.ar    1  UNL1        0.0158
      6 C         143.3119  142.8885  165.2717 C.ar    1  UNL1        0.0156
      7 C         143.1007  141.5749  165.9643 C.ar    1  UNL1        0.0466
      8 N         143.7155  141.6957  161.5082 N.pl3   1  UNL1       -0.3061
      9 C         144.0504  142.9121  160.6969 C.3     1  UNL1        0.0923
     10 C         144.1634  142.4947  159.2606 C.3     1  UNL1        0.0391
     11 C         143.8983  141.0203  159.1841 C.3     1  UNL1        0.0790
     12 C         143.6215  140.5265  160.5732 C.3     1  UNL1        0.1067
     13 N         143.9083  140.1862  157.9375 N.3     1  UNL1       -0.2736
     14 C         144.8308  140.3602  156.7677 C.3     1  UNL1        0.0721
     15 C         144.4902  139.3132  155.7490 C.3     1  UNL1        0.0187
     16 C         143.3571  138.4921  156.2893 C.3     1  UNL1        0.0174
     17 C         142.9975  139.0316  157.6419 C.3     1  UNL1        0.0576
     18 C         141.9168  138.5085  158.5410 C.3     1  UNL1        0.0173
     19 N         142.8957  141.5347  167.4497 N.am    1  UNL1       -0.2805
     20 C         141.5117  141.6363  168.0189 C.2     1  UNL1        0.2535
     21 O         140.3325  141.7781  167.1027 O.2     1  UNL1       -0.2697
     22 H         143.6696  141.4416  168.0511 H       1  UNL1        0.1552
     23 C         141.3067  141.5961  169.5044 C.ar    1  UNL1        0.1032
     24 C         141.6190  140.4391  170.4065 C.ar    1  UNL1        0.1050
     25 C         142.1911  139.1192  169.9816 C.3     1  UNL1        0.0558
     26 N         141.2588  140.8337  171.8081 N.ar    1  UNL1       -0.0816
     27 O         140.7238  142.2347  171.7722 O.2     1  UNL1       -0.3579
     28 C         140.7535  142.7058  170.3483 C.ar    1  UNL1        0.1588
     29 C         140.3081  144.0506  169.8552 C.3     1  UNL1        0.0755
@<TRIPOS>BOND
     1     1     2    1
     2     2     3   ar
     3     3     4   ar
     4     4     8    1
     5     8     9    1
     6     9    10    1
     7    10    11    1
     8    11    13    1
     9    13    14    1
    10    14    15    1
    11    15    16    1
    12    16    17    1
    13    17    18    1
    14    11    12    1
    15     4     5   ar
    16     5     6   ar
    17     6     7   ar
    18     7    19    1
    19    19    20   am
    20    20    21    2
    21    20    23    1
    22    23    24   ar
    23    24    25    1
    24    24    26   ar
    25    26    27   ar
    26    27    28   ar
    27    28    29    1
    28     7     2   ar
    29    28    23   ar
    30    12     8    1
    31    17    13    1
    32    19    22    1
@<TRIPOS>MOLECULE
*****
 29 32 0 0 0
SMALL
GASTEIGER

@<TRIPOS>ATOM
      1 C         138.6585  138.8637  166.2233 C.3     1  UNL1        0.0324
      2 C         138.9380  140.0524  165.3522 C.ar    1  UNL1       -0.0071
      3 C         138.6859  139.9759  163.8755 C.ar    1  UNL1        0.0115
      4 C         138.9654  141.1646  163.0044 C.ar    1  UNL1        0.0476
      5 C         139.4970  142.4298  163.6099 C.ar    1  UNL1        0.0158
      6 C         139.7491  142.5063  165.0866 C.ar    1  UNL1        0.0156
      7 C         139.4696  141.3175  165.9577 C.ar    1  UNL1        0.0466
      8 N         138.7132  141.0881  161.5277 N.pl3   1  UNL1       -0.3061
      9 C         138.3306  139.8568  160.7612 C.3     1  UNL1        0.0923
     10 C         138.1804  140.2372  159.3180 C.3     1  UNL1        0.0391
     11 C         138.4701  141.7037  159.1926 C.3     1  UNL1        0.0790
     12 C         138.7994  142.2295  160.5582 C.3     1  UNL1        0.1067
     13 N         138.4364  142.5037  157.9242 N.3     1  UNL1       -0.2736
     14 C         137.2868  142.5864  156.9643 C.3     1  UNL1        0.0721
     15 C         137.6863  143.4954  155.8399 C.3     1  UNL1        0.0187
     16 C         139.0829  143.9743  156.1050 C.3     1  UNL1        0.0174
     17 C         139.5465  143.3615  157.3932 C.3     1  UNL1        0.0576
     18 C         140.8851  143.5698  158.0372 C.3     1  UNL1        0.0173
     19 N         139.7217  141.3940  167.4344 N.am    1  UNL1       -0.2805
     20 C         141.1271  141.3645  167.9579 C.2     1  UNL1        0.2535
     21 O         142.2804  141.2585  167.0046 O.2     1  UNL1       -0.2697
     22 H         138.9648  141.4636  168.0601 H       1  UNL1        0.1552
     23 C         141.3792  141.4411  169.4346 C.ar    1  UNL1        0.1032
     24 C         141.0858  142.6162  170.3194 C.ar    1  UNL1        0.1050
     25 C         140.4886  143.9211  169.8829 C.3     1  UNL1        0.0558
     26 N         141.4943  142.2572  171.7174 N.ar    1  UNL1       -0.0816
     27 O         142.0402  140.8602  171.6965 O.2     1  UNL1       -0.3579
     28 C         141.9691  140.3558  170.2856 C.ar    1  UNL1        0.1588
     29 C         142.4104  139.0036  169.8094 C.3     1  UNL1        0.0755
@<TRIPOS>BOND
     1     1     2    1
     2     2     3   ar
     3     3     4   ar
     4     4     8    1
     5     8     9    1
     6     9    10    1
     7    10    11    1
     8    11    13    1
     9    13    14    1
    10    14    15    1
    11    15    16    1
    12    16    17    1
    13    17    18    1
    14    11    12    1
    15     4     5   ar
    16     5     6   ar
    17     6     7   ar
    18     7    19    1
    19    19    20   am
    20    20    21    2
    21    20    23    1
    22    23    24   ar
    23    24    25    1
    24    24    26   ar
    25    26    27   ar
    26    27    28   ar
    27    28    29    1
    28     7     2   ar
    29    28    23   ar
    30    12     8    1
    31    17    13    1
    32    19    22    1
@<TRIPOS>MOLECULE
*****
 29 32 0 0 0
SMALL
GASTEIGER

@<TRIPOS>ATOM
      1 C         143.6344  138.3224  166.1042 C.3     1  UNL1        0.0324
      2 C         143.1685  139.3690  165.1359 C.ar    1  UNL1       -0.0071
      3 C         143.1642  139.0803  163.6640 C.ar    1  UNL1        0.0115
      4 C         142.6983  140.1268  162.6957 C.ar    1  UNL1        0.0476
      5 C         142.2366  141.4622  163.1994 C.ar    1  UNL1        0.0158
      6 C         142.2408  141.7509  164.6713 C.ar    1  UNL1        0.0156
      7 C         142.7068  140.7043  165.6396 C.ar    1  UNL1        0.0466
      8 N         142.6941  139.8381  161.2238 N.pl3   1  UNL1       -0.3061
      9 C         143.7797  140.1948  160.2521 C.3     1  UNL1        0.0923
     10 C         143.3600  139.7191  158.8929 C.3     1  UNL1        0.0391
     11 C         142.0150  139.0682  159.0245 C.3     1  UNL1        0.0790
     12 C         141.6034  139.1418  160.4650 C.3     1  UNL1        0.1067
     13 N         141.2209  138.4520  157.9110 N.3     1  UNL1       -0.2736
     14 C         139.8807  138.9158  157.4224 C.3     1  UNL1        0.0721
     15 C         139.4592  138.0143  156.3001 C.3     1  UNL1        0.0187
     16 C         140.5389  136.9934  156.0951 C.3     1  UNL1        0.0174
     17 C         141.6277  137.2639  157.0907 C.3     1  UNL1        0.0576
     18 C         142.9000  136.4834  157.2398 C.3     1  UNL1        0.0173
     19 N         142.7110  140.9931  167.1115 N.am    1  UNL1       -0.2805
     20 C         141.4477  140.8502  167.9075 C.2     1  UNL1        0.2535
     21 O         140.1801  140.4185  167.2316 O.2     1  UNL1       -0.2697
     22 H         143.5430  141.2764  167.5552 H       1  UNL1        0.1552
     23 C         141.4519  141.1390  169.3795 C.ar    1  UNL1        0.1032
     24 C         141.9549  140.2236  170.4561 C.ar    1  UNL1        0.1050
     25 C         142.5419  138.8588  170.2498 C.3     1  UNL1        0.0558
     26 N         141.7677  140.9128  171.7752 N.ar    1  UNL1       -0.0816
     27 O         141.1491  142.2541  171.5139 O.2     1  UNL1       -0.3579
     28 C         140.9539  142.3939  170.0331 C.ar    1  UNL1        0.1588
     29 C         140.3643  143.5802  169.3297 C.3     1  UNL1        0.0755
@<TRIPOS>BOND
     1     1     2    1
     2     2     3   ar
     3     3     4   ar
     4     4     8    1
     5     8     9    1
     6     9    10    1
     7    10    11    1
     8    11    13    1
     9    13    14    1
    10    14    15    1
    11    15    16    1
    12    16    17    1
    13    17    18    1
    14    11    12    1
    15     4     5   ar
    16     5     6   ar
    17     6     7   ar
    18     7    19    1
    19    19    20   am
    20    20    21    2
    21    20    23    1
    22    23    24   ar
    23    24    25    1
    24    24    26   ar
    25    26    27   ar
    26    27    28   ar
    27    28    29    1
    28     7     2   ar
    29    28    23   ar
    30    12     8    1
    31    17    13    1
    32    19    22    1
