@<TRIPOS>MOLECULE
*****
 34 37 0 0 0
SMALL
GASTEIGER

@<TRIPOS>ATOM
      1 C         139.1224  138.5831  164.1274 C.3     1  UNL1        0.1166
      2 C         139.9450  138.4905  162.8766 C.ar    1  UNL1       -0.0026
      3 C         139.2878  138.6252  161.5350 C.ar    1  UNL1       -0.0025
      4 C         140.1105  138.5326  160.2842 C.ar    1  UNL1        0.0042
      5 C         141.5905  138.3054  160.3749 C.ar    1  UNL1        0.0533
      6 C         142.2477  138.1708  161.7165 C.ar    1  UNL1        0.0042
      7 C         141.4249  138.2633  162.9674 C.ar    1  UNL1       -0.0025
      8 C         142.4132  138.2129  159.1241 C.2     1  UNL1        0.2461
      9 O         143.7525  138.8849  159.0559 O.2     1  UNL1       -0.2701
     10 N         141.8965  137.4484  157.9415 N.am    1  UNL1       -0.2969
     11 H         141.0175  137.0074  157.9862 H       1  UNL1        0.1501
     12 C         142.7192  137.3559  156.6906 C.3     1  UNL1        0.1166
     13 C         142.7688  136.0706  155.9189 C.ar    1  UNL1       -0.0026
     14 C         142.1208  135.9807  154.5692 C.ar    1  UNL1       -0.0026
     15 C         142.1704  134.6954  153.7975 C.ar    1  UNL1       -0.0003
     16 C         142.8680  133.5000  154.3756 C.ar    1  UNL1       -0.0000
     17 C         143.5162  133.5898  155.7254 C.ar    1  UNL1       -0.0003
     18 C         143.4665  134.8751  156.4971 C.ar    1  UNL1       -0.0026
     19 C         138.8619  139.3470  166.5970 C.2     1  UNL1        0.2461
     20 O         137.5138  138.6919  166.6574 O.2     1  UNL1       -0.2701
     21 N         139.6661  139.2926  165.3320 N.am    1  UNL1       -0.2969
     22 H         140.5509  139.7226  165.2923 H       1  UNL1        0.1501
     23 N         143.4272  143.8438  171.1313 N.pl3   1  UNL1       -0.3375
     24 C         142.4058  142.9398  170.5071 C.ar    1  UNL1        0.1567
     25 N         141.2538  142.2898  171.2146 N.ar    1  UNL1       -0.2245
     26 C         140.4930  141.4755  170.2107 C.ar    1  UNL1        0.0892
     27 C         139.2676  140.6193  170.3342 C.ar    1  UNL1        0.0198
     28 C         138.7239  139.9099  169.1296 C.ar    1  UNL1        0.0061
     29 C         139.4056  140.0565  167.8016 C.ar    1  UNL1        0.0540
     30 C         140.6311  140.9127  167.6780 C.ar    1  UNL1        0.0126
     31 C         141.1748  141.6221  168.8826 C.ar    1  UNL1        0.0498
     32 S         142.3569  142.5272  169.0658 S.2     1  UNL1       -0.0520
     33 H         143.3749  144.0570  172.0910 H       1  UNL1        0.1442
     34 H         144.1499  144.2238  170.5812 H       1  UNL1        0.1442
@<TRIPOS>BOND
     1    23    24    1
     2    24    25   ar
     3    25    26   ar
     4    26    27   ar
     5    27    28   ar
     6    28    29   ar
     7    29    19    1
     8    19    20    2
     9    19    21   am
    10    21     1    1
    11     1     2    1
    12     2     3   ar
    13     3     4   ar
    14     4     5   ar
    15     5     8    1
    16     8     9    2
    17     8    10   am
    18    10    12    1
    19    12    13    1
    20    13    14   ar
    21    14    15   ar
    22    15    16   ar
    23    16    17   ar
    24    17    18   ar
    25     5     6   ar
    26     6     7   ar
    27    29    30   ar
    28    30    31   ar
    29    31    32   ar
    30    32    24   ar
    31    31    26   ar
    32     7     2   ar
    33    18    13   ar
    34    23    33    1
    35    23    34    1
    36    21    22    1
    37    10    11    1
@<TRIPOS>MOLECULE
*****
 34 37 0 0 0
SMALL
GASTEIGER

@<TRIPOS>ATOM
      1 C         139.2781  137.9943  164.3643 C.3     1  UNL1        0.1166
      2 C         139.0870  138.6701  163.0389 C.ar    1  UNL1       -0.0026
      3 C         139.8660  138.2091  161.8428 C.ar    1  UNL1       -0.0025
      4 C         139.6748  138.8849  160.5174 C.ar    1  UNL1        0.0042
      5 C         138.7047  140.0216  160.3880 C.ar    1  UNL1        0.0533
      6 C         137.9257  140.4826  161.5842 C.ar    1  UNL1        0.0042
      7 C         138.1168  139.8068  162.9096 C.ar    1  UNL1       -0.0025
      8 C         138.5135  140.6974  159.0626 C.2     1  UNL1        0.2461
      9 O         138.3750  142.1894  158.9946 O.2     1  UNL1       -0.2701
     10 N         138.4609  139.8811  157.8053 N.am    1  UNL1       -0.2969
     11 H         138.5519  138.9019  157.8499 H       1  UNL1        0.1501
     12 C         138.2698  140.5569  156.4798 C.3     1  UNL1        0.1166
     13 C         136.9143  140.5791  155.8379 C.ar    1  UNL1       -0.0026
     14 C         135.6807  140.5992  156.6909 C.ar    1  UNL1       -0.0026
     15 C         134.3252  140.6214  156.0489 C.ar    1  UNL1       -0.0003
     16 C         134.2033  140.6236  154.5539 C.ar    1  UNL1       -0.0000
     17 C         135.4370  140.6035  153.7008 C.ar    1  UNL1       -0.0003
     18 C         136.7925  140.5813  154.3428 C.ar    1  UNL1       -0.0026
     19 C         138.8745  139.1601  166.6509 C.2     1  UNL1        0.2461
     20 O         137.4279  138.7675  166.5957 O.2     1  UNL1       -0.2701
     21 N         139.7996  138.7736  165.5352 N.am    1  UNL1       -0.2969
     22 H         140.7491  139.0313  165.5715 H       1  UNL1        0.1501
     23 N         143.4262  143.8183  171.0334 N.pl3   1  UNL1       -0.3375
     24 C         142.3957  142.9079  170.4340 C.ar    1  UNL1        0.1567
     25 N         141.1898  142.3579  171.1363 N.ar    1  UNL1       -0.2245
     26 C         140.4390  141.4977  170.1634 C.ar    1  UNL1        0.0892
     27 C         139.1756  140.7001  170.2961 C.ar    1  UNL1        0.0198
     28 C         138.6541  139.9209  169.1253 C.ar    1  UNL1        0.0061
     29 C         139.3960  139.9394  167.8217 C.ar    1  UNL1        0.0540
     30 C         140.6594  140.7370  167.6890 C.ar    1  UNL1        0.0126
     31 C         141.1809  141.5162  168.8599 C.ar    1  UNL1        0.0498
     32 S         142.3902  142.3877  169.0272 S.2     1  UNL1       -0.0520
     33 H         143.3427  144.1066  171.9711 H       1  UNL1        0.1442
     34 H         144.1861  144.1275  170.4892 H       1  UNL1        0.1442
@<TRIPOS>BOND
     1    23    24    1
     2    24    25   ar
     3    25    26   ar
     4    26    27   ar
     5    27    28   ar
     6    28    29   ar
     7    29    19    1
     8    19    20    2
     9    19    21   am
    10    21     1    1
    11     1     2    1
    12     2     3   ar
    13     3     4   ar
    14     4     5   ar
    15     5     8    1
    16     8     9    2
    17     8    10   am
    18    10    12    1
    19    12    13    1
    20    13    14   ar
    21    14    15   ar
    22    15    16   ar
    23    16    17   ar
    24    17    18   ar
    25     5     6   ar
    26     6     7   ar
    27    29    30   ar
    28    30    31   ar
    29    31    32   ar
    30    32    24   ar
    31    31    26   ar
    32     7     2   ar
    33    18    13   ar
    34    23    33    1
    35    23    34    1
    36    21    22    1
    37    10    11    1
@<TRIPOS>MOLECULE
*****
 34 37 0 0 0
SMALL
GASTEIGER

@<TRIPOS>ATOM
      1 C         142.9562  138.8226  157.9638 C.3     1  UNL1        0.1166
      2 C         143.2194  138.9762  159.4325 C.ar    1  UNL1       -0.0026
      3 C         143.6471  140.3043  159.9830 C.ar    1  UNL1       -0.0025
      4 C         143.9102  140.4578  161.4517 C.ar    1  UNL1        0.0042
      5 C         143.7457  139.2832  162.3700 C.ar    1  UNL1        0.0533
      6 C         143.3180  137.9550  161.8195 C.ar    1  UNL1        0.0042
      7 C         143.0548  137.8015  160.3507 C.ar    1  UNL1       -0.0025
      8 C         144.0088  139.4367  163.8387 C.2     1  UNL1        0.2461
      9 O         145.0258  140.4294  164.3186 O.2     1  UNL1       -0.2701
     10 N         143.2550  138.5976  164.8274 N.am    1  UNL1       -0.2969
     11 H         142.5876  137.9461  164.5124 H       1  UNL1        0.1501
     12 C         143.5182  138.7511  166.2961 C.3     1  UNL1        0.1166
     13 C         142.4262  139.2265  167.2081 C.ar    1  UNL1       -0.0026
     14 C         142.6536  139.2723  168.6900 C.ar    1  UNL1       -0.0026
     15 C         141.5616  139.7477  169.6019 C.ar    1  UNL1       -0.0003
     16 C         140.2423  140.1772  169.0320 C.ar    1  UNL1       -0.0000
     17 C         140.0149  140.1313  167.5500 C.ar    1  UNL1       -0.0003
     18 C         141.1069  139.6559  166.6380 C.ar    1  UNL1       -0.0026
     19 C         142.1091  136.6925  156.7411 C.2     1  UNL1        0.2461
     20 O         140.6957  137.1756  156.8787 O.2     1  UNL1       -0.2701
     21 N         143.2393  137.5160  157.2836 N.am    1  UNL1       -0.2969
     22 H         144.1670  137.1989  157.1933 H       1  UNL1        0.1501
     23 N         145.2187  129.6546  155.1849 N.pl3   1  UNL1       -0.3375
     24 C         144.4717  130.9541  155.2425 C.ar    1  UNL1        0.1567
     25 N         143.4439  131.4247  154.2565 N.ar    1  UNL1       -0.2245
     26 C         142.9583  132.7726  154.7007 C.ar    1  UNL1        0.0892
     27 C         141.9476  133.7167  154.1203 C.ar    1  UNL1        0.0198
     28 C         141.6645  135.0233  154.8004 C.ar    1  UNL1        0.0061
     29 C         142.3922  135.3858  156.0610 C.ar    1  UNL1        0.0540
     30 C         143.4029  134.4417  156.6414 C.ar    1  UNL1        0.0126
     31 C         143.6860  133.1351  155.9613 C.ar    1  UNL1        0.0498
     32 S         144.6213  132.0112  156.2961 S.2     1  UNL1       -0.0520
     33 H         145.0502  129.0221  154.4495 H       1  UNL1        0.1442
     34 H         145.8774  129.4342  155.8825 H       1  UNL1        0.1442
@<TRIPOS>BOND
     1    23    24    1
     2    24    25   ar
     3    25    26   ar
     4    26    27   ar
     5    27    28   ar
     6    28    29   ar
     7    29    19    1
     8    19    20    2
     9    19    21   am
    10    21     1    1
    11     1     2    1
    12     2     3   ar
    13     3     4   ar
    14     4     5   ar
    15     5     8    1
    16     8     9    2
    17     8    10   am
    18    10    12    1
    19    12    13    1
    20    13    14   ar
    21    14    15   ar
    22    15    16   ar
    23    16    17   ar
    24    17    18   ar
    25     5     6   ar
    26     6     7   ar
    27    29    30   ar
    28    30    31   ar
    29    31    32   ar
    30    32    24   ar
    31    31    26   ar
    32     7     2   ar
    33    18    13   ar
    34    23    33    1
    35    23    34    1
    36    21    22    1
    37    10    11    1
@<TRIPOS>MOLECULE
*****
 34 37 0 0 0
SMALL
GASTEIGER

@<TRIPOS>ATOM
      1 C         142.9789  143.7964  162.4338 C.3     1  UNL1        0.1166
      2 C         142.2415  144.1585  161.1788 C.ar    1  UNL1       -0.0026
      3 C         142.6002  143.4976  159.8809 C.ar    1  UNL1       -0.0025
      4 C         141.8628  143.8597  158.6259 C.ar    1  UNL1        0.0042
      5 C         140.7667  144.8829  158.6687 C.ar    1  UNL1        0.0533
      6 C         140.4080  145.5438  159.9666 C.ar    1  UNL1        0.0042
      7 C         141.1454  145.1816  161.2216 C.ar    1  UNL1       -0.0025
      8 C         140.0293  145.2450  157.4137 C.2     1  UNL1        0.2461
      9 O         139.5228  144.1657  156.5035 O.2     1  UNL1       -0.2701
     10 N         139.7984  146.6865  157.0689 N.am    1  UNL1       -0.2969
     11 H         140.1308  147.3949  157.6663 H       1  UNL1        0.1501
     12 C         139.0610  147.0486  155.8139 C.3     1  UNL1        0.1166
     13 C         139.0928  148.4596  155.3060 C.ar    1  UNL1       -0.0026
     14 C         139.7335  148.7669  153.9849 C.ar    1  UNL1       -0.0026
     15 C         139.7653  150.1780  153.4770 C.ar    1  UNL1       -0.0003
     16 C         139.1565  151.2817  154.2901 C.ar    1  UNL1       -0.0000
     17 C         138.5158  150.9744  155.6112 C.ar    1  UNL1       -0.0003
     18 C         138.4840  149.5634  156.1191 C.ar    1  UNL1       -0.0026
     19 C         141.3785  143.3508  164.4314 C.2     1  UNL1        0.2461
     20 O         141.0101  144.8046  164.4605 O.2     1  UNL1       -0.2701
     21 N         142.3629  142.8467  163.4181 N.am    1  UNL1       -0.2969
     22 H         142.6047  141.8926  163.3990 H       1  UNL1        0.1501
     23 N         139.8116  139.6059  171.1503 N.pl3   1  UNL1       -0.3375
     24 C         139.9100  140.1480  169.7552 C.ar    1  UNL1        0.1567
     25 N         139.1091  139.6895  168.5726 N.ar    1  UNL1       -0.2245
     26 C         139.5307  140.5018  167.3842 C.ar    1  UNL1        0.0892
     27 C         139.0852  140.4910  165.9519 C.ar    1  UNL1        0.0198
     28 C         139.7011  141.4406  164.9677 C.ar    1  UNL1        0.0061
     29 C         140.7626  142.4011  165.4157 C.ar    1  UNL1        0.0540
     30 C         141.2081  142.4120  166.8480 C.ar    1  UNL1        0.0126
     31 C         140.5922  141.4623  167.8322 C.ar    1  UNL1        0.0498
     32 S         140.8266  141.2436  169.2975 S.2     1  UNL1       -0.0520
     33 H         139.1759  138.8821  171.3535 H       1  UNL1        0.1442
     34 H         140.3826  139.9740  171.8628 H       1  UNL1        0.1442
@<TRIPOS>BOND
     1    23    24    1
     2    24    25   ar
     3    25    26   ar
     4    26    27   ar
     5    27    28   ar
     6    28    29   ar
     7    29    19    1
     8    19    20    2
     9    19    21   am
    10    21     1    1
    11     1     2    1
    12     2     3   ar
    13     3     4   ar
    14     4     5   ar
    15     5     8    1
    16     8     9    2
    17     8    10   am
    18    10    12    1
    19    12    13    1
    20    13    14   ar
    21    14    15   ar
    22    15    16   ar
    23    16    17   ar
    24    17    18   ar
    25     5     6   ar
    26     6     7   ar
    27    29    30   ar
    28    30    31   ar
    29    31    32   ar
    30    32    24   ar
    31    31    26   ar
    32     7     2   ar
    33    18    13   ar
    34    23    33    1
    35    23    34    1
    36    21    22    1
    37    10    11    1
@<TRIPOS>MOLECULE
*****
 34 37 0 0 0
SMALL
GASTEIGER

@<TRIPOS>ATOM
      1 C         142.6953  138.3043  158.1428 C.3     1  UNL1        0.1166
      2 C         142.1097  138.2722  159.5233 C.ar    1  UNL1       -0.0026
      3 C         142.9725  137.9109  160.6959 C.ar    1  UNL1       -0.0025
      4 C         142.3869  137.8788  162.0764 C.ar    1  UNL1        0.0042
      5 C         140.9382  138.2081  162.2844 C.ar    1  UNL1        0.0533
      6 C         140.0754  138.5694  161.1118 C.ar    1  UNL1        0.0042
      7 C         140.6611  138.6015  159.7313 C.ar    1  UNL1       -0.0025
      8 C         140.3526  138.1760  163.6649 C.2     1  UNL1        0.2461
      9 O         140.8304  137.1593  164.6589 O.2     1  UNL1       -0.2701
     10 N         139.2891  139.1606  164.0515 N.am    1  UNL1       -0.2969
     11 H         138.9754  139.8279  163.3992 H       1  UNL1        0.1501
     12 C         138.7034  139.1285  165.4321 C.3     1  UNL1        0.1166
     13 C         139.2445  140.0351  166.4976 C.ar    1  UNL1       -0.0026
     14 C         139.9734  141.2893  166.1162 C.ar    1  UNL1       -0.0026
     15 C         140.5146  142.1958  167.1817 C.ar    1  UNL1       -0.0003
     16 C         140.3268  141.8481  168.6287 C.ar    1  UNL1       -0.0000
     17 C         139.5978  140.5939  169.0102 C.ar    1  UNL1       -0.0003
     18 C         139.0567  139.6873  167.9447 C.ar    1  UNL1       -0.0026
     19 C         142.0129  136.3277  156.6009 C.2     1  UNL1        0.2461
     20 O         140.6403  136.9149  156.4557 O.2     1  UNL1       -0.2701
     21 N         143.0404  137.0224  157.4444 N.am    1  UNL1       -0.2969
     22 H         143.9413  136.6369  157.5397 H       1  UNL1        0.1501
     23 N         145.3374  129.3919  155.0308 N.pl3   1  UNL1       -0.3375
     24 C         144.5637  130.6759  155.0817 C.ar    1  UNL1        0.1567
     25 N         143.5830  131.1558  154.0532 N.ar    1  UNL1       -0.2245
     26 C         143.0480  132.4820  154.5059 C.ar    1  UNL1        0.0892
     27 C         142.0529  133.4240  153.8959 C.ar    1  UNL1        0.0198
     28 C         141.7079  134.7059  154.5942 C.ar    1  UNL1        0.0061
     29 C         142.3579  135.0457  155.9026 C.ar    1  UNL1        0.0540
     30 C         143.3530  134.1037  156.5127 C.ar    1  UNL1        0.0126
     31 C         143.6981  132.8218  155.8143 C.ar    1  UNL1        0.0498
     32 S         144.6348  131.7056  156.1702 S.2     1  UNL1       -0.0520
     33 H         145.2218  128.7774  154.2704 H       1  UNL1        0.1442
     34 H         145.9609  129.1637  155.7578 H       1  UNL1        0.1442
@<TRIPOS>BOND
     1    23    24    1
     2    24    25   ar
     3    25    26   ar
     4    26    27   ar
     5    27    28   ar
     6    28    29   ar
     7    29    19    1
     8    19    20    2
     9    19    21   am
    10    21     1    1
    11     1     2    1
    12     2     3   ar
    13     3     4   ar
    14     4     5   ar
    15     5     8    1
    16     8     9    2
    17     8    10   am
    18    10    12    1
    19    12    13    1
    20    13    14   ar
    21    14    15   ar
    22    15    16   ar
    23    16    17   ar
    24    17    18   ar
    25     5     6   ar
    26     6     7   ar
    27    29    30   ar
    28    30    31   ar
    29    31    32   ar
    30    32    24   ar
    31    31    26   ar
    32     7     2   ar
    33    18    13   ar
    34    23    33    1
    35    23    34    1
    36    21    22    1
    37    10    11    1
@<TRIPOS>MOLECULE
*****
 34 37 0 0 0
SMALL
GASTEIGER

@<TRIPOS>ATOM
      1 C         141.0343  137.4032  163.8491 C.3     1  UNL1        0.1166
      2 C         141.5258  137.8771  162.5136 C.ar    1  UNL1       -0.0026
      3 C         140.5454  138.2026  161.4260 C.ar    1  UNL1       -0.0025
      4 C         141.0368  138.6766  160.0904 C.ar    1  UNL1        0.0042
      5 C         142.5087  138.8250  159.8423 C.ar    1  UNL1        0.0533
      6 C         143.4892  138.4994  160.9299 C.ar    1  UNL1        0.0042
      7 C         142.9976  138.0255  162.2655 C.ar    1  UNL1       -0.0025
      8 C         143.0002  139.2989  158.5068 C.2     1  UNL1        0.2461
      9 O         143.5329  138.3123  157.5104 O.2     1  UNL1       -0.2701
     10 N         142.9589  140.7595  158.1675 N.am    1  UNL1       -0.2969
     11 H         142.6093  141.4070  158.8215 H       1  UNL1        0.1501
     12 C         143.4504  141.2334  156.8319 C.3     1  UNL1        0.1166
     13 C         144.8928  141.6033  156.6516 C.ar    1  UNL1       -0.0026
     14 C         145.6634  141.0689  155.4809 C.ar    1  UNL1       -0.0026
     15 C         147.1059  141.4387  155.3006 C.ar    1  UNL1       -0.0003
     16 C         147.7777  142.3430  156.2910 C.ar    1  UNL1       -0.0000
     17 C         147.0071  142.8774  157.4617 C.ar    1  UNL1       -0.0003
     18 C         145.5647  142.5076  157.6421 C.ar    1  UNL1       -0.0026
     19 C         140.0787  138.8772  165.7633 C.2     1  UNL1        0.2461
     20 O         138.6911  138.6636  165.2351 O.2     1  UNL1       -0.2701
     21 N         141.2503  138.2470  165.0704 N.am    1  UNL1       -0.2969
     22 H         142.1610  138.3872  165.4171 H       1  UNL1        0.1501
     23 N         143.4498  143.7281  170.9332 N.pl3   1  UNL1       -0.3375
     24 C         142.5865  142.7991  170.1321 C.ar    1  UNL1        0.1567
     25 N         141.2188  142.3165  170.5148 N.ar    1  UNL1       -0.2245
     26 C         140.7264  141.4086  169.4270 C.ar    1  UNL1        0.0892
     27 C         139.4471  140.6433  169.2608 C.ar    1  UNL1        0.0198
     28 C         139.2312  139.7995  168.0396 C.ar    1  UNL1        0.0061
     29 C         140.2946  139.7211  166.9846 C.ar    1  UNL1        0.0540
     30 C         141.5739  140.4864  167.1508 C.ar    1  UNL1        0.0126
     31 C         141.7898  141.3302  168.3720 C.ar    1  UNL1        0.0498
     32 S         142.9394  142.1895  168.8078 S.2     1  UNL1       -0.0520
     33 H         143.1286  144.0776  171.7957 H       1  UNL1        0.1442
     34 H         144.3375  143.9884  170.5964 H       1  UNL1        0.1442
@<TRIPOS>BOND
     1    23    24    1
     2    24    25   ar
     3    25    26   ar
     4    26    27   ar
     5    27    28   ar
     6    28    29   ar
     7    29    19    1
     8    19    20    2
     9    19    21   am
    10    21     1    1
    11     1     2    1
    12     2     3   ar
    13     3     4   ar
    14     4     5   ar
    15     5     8    1
    16     8     9    2
    17     8    10   am
    18    10    12    1
    19    12    13    1
    20    13    14   ar
    21    14    15   ar
    22    15    16   ar
    23    16    17   ar
    24    17    18   ar
    25     5     6   ar
    26     6     7   ar
    27    29    30   ar
    28    30    31   ar
    29    31    32   ar
    30    32    24   ar
    31    31    26   ar
    32     7     2   ar
    33    18    13   ar
    34    23    33    1
    35    23    34    1
    36    21    22    1
    37    10    11    1
@<TRIPOS>MOLECULE
*****
 34 37 0 0 0
SMALL
GASTEIGER

@<TRIPOS>ATOM
      1 C         138.9611  138.0861  164.4862 C.3     1  UNL1        0.1166
      2 C         138.8111  138.7224  163.1361 C.ar    1  UNL1       -0.0026
      3 C         139.3707  138.0441  161.9209 C.ar    1  UNL1       -0.0025
      4 C         139.2207  138.6805  160.5709 C.ar    1  UNL1        0.0042
      5 C         138.5111  139.9951  160.4361 C.ar    1  UNL1        0.0533
      6 C         137.9515  140.6734  161.6513 C.ar    1  UNL1        0.0042
      7 C         138.1015  140.0370  163.0014 C.ar    1  UNL1       -0.0025
      8 C         138.3611  140.6314  159.0861 C.2     1  UNL1        0.2461
      9 O         138.1475  139.7754  157.8731 O.2     1  UNL1       -0.2701
     10 N         138.4247  142.1238  158.9491 N.am    1  UNL1       -0.2969
     11 H         138.5649  142.6857  159.7453 H       1  UNL1        0.1501
     12 C         138.2747  142.7601  157.5991 C.3     1  UNL1        0.1166
     13 C         139.4599  143.3934  156.9326 C.ar    1  UNL1       -0.0026
     14 C         139.8593  144.7952  157.2868 C.ar    1  UNL1       -0.0026
     15 C         141.0445  145.4284  156.6203 C.ar    1  UNL1       -0.0003
     16 C         141.8303  144.6600  155.5996 C.ar    1  UNL1       -0.0000
     17 C         141.4309  143.2582  155.2453 C.ar    1  UNL1       -0.0003
     18 C         140.2457  142.6249  155.9118 C.ar    1  UNL1       -0.0026
     19 C         138.6919  139.1284  166.8508 C.2     1  UNL1        0.2461
     20 O         137.2941  138.5899  166.9290 O.2     1  UNL1       -0.2701
     21 N         139.5254  138.8765  165.6294 N.am    1  UNL1       -0.2969
     22 H         140.4428  139.2300  165.5780 H       1  UNL1        0.1501
     23 N         143.4014  143.8283  171.0167 N.pl3   1  UNL1       -0.3375
     24 C         142.3497  142.9122  170.4647 C.ar    1  UNL1        0.1567
     25 N         141.1708  142.3689  171.2164 N.ar    1  UNL1       -0.2245
     26 C         140.3847  141.4995  170.2803 C.ar    1  UNL1        0.0892
     27 C         139.1274  140.7032  170.4674 C.ar    1  UNL1        0.0198
     28 C         138.5632  139.9129  169.3243 C.ar    1  UNL1        0.0061
     29 C         139.2562  139.9188  167.9940 C.ar    1  UNL1        0.0540
     30 C         140.5135  140.7151  167.8069 C.ar    1  UNL1        0.0126
     31 C         141.0778  141.5055  168.9500 C.ar    1  UNL1        0.0498
     32 S         142.2922  142.3786  169.0640 S.2     1  UNL1       -0.0520
     33 H         143.3526  144.1256  171.9539 H       1  UNL1        0.1442
     34 H         144.1405  144.1323  170.4417 H       1  UNL1        0.1442
@<TRIPOS>BOND
     1    23    24    1
     2    24    25   ar
     3    25    26   ar
     4    26    27   ar
     5    27    28   ar
     6    28    29   ar
     7    29    19    1
     8    19    20    2
     9    19    21   am
    10    21     1    1
    11     1     2    1
    12     2     3   ar
    13     3     4   ar
    14     4     5   ar
    15     5     8    1
    16     8     9    2
    17     8    10   am
    18    10    12    1
    19    12    13    1
    20    13    14   ar
    21    14    15   ar
    22    15    16   ar
    23    16    17   ar
    24    17    18   ar
    25     5     6   ar
    26     6     7   ar
    27    29    30   ar
    28    30    31   ar
    29    31    32   ar
    30    32    24   ar
    31    31    26   ar
    32     7     2   ar
    33    18    13   ar
    34    23    33    1
    35    23    34    1
    36    21    22    1
    37    10    11    1
@<TRIPOS>MOLECULE
*****
 34 37 0 0 0
SMALL
GASTEIGER

@<TRIPOS>ATOM
      1 C         141.2013  139.9555  161.4402 C.3     1  UNL1        0.1166
      2 C         140.2078  140.2613  160.3589 C.ar    1  UNL1       -0.0026
      3 C         140.3056  139.5676  159.0325 C.ar    1  UNL1       -0.0025
      4 C         139.3121  139.8735  157.9511 C.ar    1  UNL1        0.0042
      5 C         138.2207  140.8731  158.1961 C.ar    1  UNL1        0.0533
      6 C         138.1230  141.5668  159.5225 C.ar    1  UNL1        0.0042
      7 C         139.1166  141.2609  160.6039 C.ar    1  UNL1       -0.0025
      8 C         137.2272  141.1789  157.1148 C.2     1  UNL1        0.2461
      9 O         137.4549  142.3408  156.1939 O.2     1  UNL1       -0.2701
     10 N         136.0060  140.3228  156.9543 N.am    1  UNL1       -0.2969
     11 H         135.8566  139.5602  157.5587 H       1  UNL1        0.1501
     12 C         135.0125  140.6287  155.8730 C.3     1  UNL1        0.1166
     13 C         133.5586  140.3247  156.0824 C.ar    1  UNL1       -0.0026
     14 C         132.5142  141.2887  155.6030 C.ar    1  UNL1       -0.0026
     15 C         131.0604  140.9848  155.8124 C.ar    1  UNL1       -0.0003
     16 C         130.6509  139.7168  156.5013 C.ar    1  UNL1       -0.0000
     17 C         131.6953  138.7527  156.9807 C.ar    1  UNL1       -0.0003
     18 C         133.1492  139.0567  156.7713 C.ar    1  UNL1       -0.0026
     19 C         140.0337  139.0356  163.5711 C.2     1  UNL1        0.2461
     20 O         139.6395  137.7980  162.8208 O.2     1  UNL1       -0.2701
     21 N         140.8146  140.1143  162.8808 N.am    1  UNL1       -0.2969
     22 H         141.0734  140.9266  163.3733 H       1  UNL1        0.1501
     23 N         140.3423  140.9892  171.1679 N.pl3   1  UNL1       -0.3375
     24 C         140.0245  140.5087  169.7829 C.ar    1  UNL1        0.1567
     25 N         138.7667  139.8100  169.3590 N.ar    1  UNL1       -0.2245
     26 C         138.8735  139.5121  167.8927 C.ar    1  UNL1        0.0892
     27 C         137.9364  138.8387  166.9345 C.ar    1  UNL1        0.0198
     28 C         138.3231  138.6799  165.4940 C.ar    1  UNL1        0.0061
     29 C         139.6470  139.1945  165.0117 C.ar    1  UNL1        0.0540
     30 C         140.5841  139.8678  165.9699 C.ar    1  UNL1        0.0126
     31 C         140.1974  140.0266  167.4105 C.ar    1  UNL1        0.0498
     32 S         140.9087  140.6426  168.5786 S.2     1  UNL1       -0.0520
     33 H         139.6941  140.8544  171.8965 H       1  UNL1        0.1442
     34 H         141.1991  141.4394  171.3482 H       1  UNL1        0.1442
@<TRIPOS>BOND
     1    23    24    1
     2    24    25   ar
     3    25    26   ar
     4    26    27   ar
     5    27    28   ar
     6    28    29   ar
     7    29    19    1
     8    19    20    2
     9    19    21   am
    10    21     1    1
    11     1     2    1
    12     2     3   ar
    13     3     4   ar
    14     4     5   ar
    15     5     8    1
    16     8     9    2
    17     8    10   am
    18    10    12    1
    19    12    13    1
    20    13    14   ar
    21    14    15   ar
    22    15    16   ar
    23    16    17   ar
    24    17    18   ar
    25     5     6   ar
    26     6     7   ar
    27    29    30   ar
    28    30    31   ar
    29    31    32   ar
    30    32    24   ar
    31    31    26   ar
    32     7     2   ar
    33    18    13   ar
    34    23    33    1
    35    23    34    1
    36    21    22    1
    37    10    11    1
@<TRIPOS>MOLECULE
*****
 34 37 0 0 0
SMALL
GASTEIGER

@<TRIPOS>ATOM
      1 C         140.1565  140.2608  161.2567 C.3     1  UNL1        0.1166
      2 C         140.7747  139.4505  160.1562 C.ar    1  UNL1       -0.0026
      3 C         139.9112  138.8735  159.0738 C.ar    1  UNL1       -0.0025
      4 C         140.5293  138.0632  157.9733 C.ar    1  UNL1        0.0042
      5 C         142.0110  137.8298  157.9550 C.ar    1  UNL1        0.0533
      6 C         142.8745  138.4067  159.0374 C.ar    1  UNL1        0.0042
      7 C         142.2563  139.2171  160.1380 C.ar    1  UNL1       -0.0025
      8 C         142.6292  137.0194  156.8545 C.2     1  UNL1        0.2461
      9 O         143.9594  137.4170  156.2868 O.2     1  UNL1       -0.2701
     10 N         141.9170  135.8116  156.3216 N.am    1  UNL1       -0.2969
     11 H         141.0439  135.5507  156.6943 H       1  UNL1        0.1501
     12 C         142.5352  135.0013  155.2211 C.3     1  UNL1        0.1166
     13 C         143.2548  133.7251  155.5427 C.ar    1  UNL1       -0.0026
     14 C         143.1778  132.5621  154.5986 C.ar    1  UNL1       -0.0026
     15 C         143.8975  131.2860  154.9202 C.ar    1  UNL1       -0.0003
     16 C         144.6942  131.1728  156.1860 C.ar    1  UNL1       -0.0000
     17 C         144.7714  132.3358  157.1302 C.ar    1  UNL1       -0.0003
     18 C         144.0517  133.6120  156.8086 C.ar    1  UNL1       -0.0026
     19 C         140.7046  139.0909  163.5109 C.2     1  UNL1        0.2461
     20 O         139.9796  137.8617  163.0492 O.2     1  UNL1       -0.2701
     21 N         140.7931  140.2905  162.6147 N.am    1  UNL1       -0.2969
     22 H         141.2690  141.0973  162.9177 H       1  UNL1        0.1501
     23 N         141.7726  140.3687  171.1822 N.pl3   1  UNL1       -0.3375
     24 C         141.8329  140.0109  169.7268 C.ar    1  UNL1        0.1567
     25 N         142.9828  139.3471  169.0289 N.ar    1  UNL1       -0.2245
     26 C         142.6145  139.1800  167.5845 C.ar    1  UNL1        0.0892
     27 C         143.3555  138.5898  166.4215 C.ar    1  UNL1        0.0198
     28 C         142.7189  138.5601  165.0637 C.ar    1  UNL1        0.0061
     29 C         141.3413  139.1206  164.8688 C.ar    1  UNL1        0.0540
     30 C         140.6002  139.7108  166.0318 C.ar    1  UNL1        0.0126
     31 C         141.2368  139.7404  167.3896 C.ar    1  UNL1        0.0498
     32 S         140.7538  140.2539  168.7136 S.2     1  UNL1       -0.0520
     33 H         142.5358  140.1676  171.7706 H       1  UNL1        0.1442
     34 H         140.9697  140.8047  171.5491 H       1  UNL1        0.1442
@<TRIPOS>BOND
     1    23    24    1
     2    24    25   ar
     3    25    26   ar
     4    26    27   ar
     5    27    28   ar
     6    28    29   ar
     7    29    19    1
     8    19    20    2
     9    19    21   am
    10    21     1    1
    11     1     2    1
    12     2     3   ar
    13     3     4   ar
    14     4     5   ar
    15     5     8    1
    16     8     9    2
    17     8    10   am
    18    10    12    1
    19    12    13    1
    20    13    14   ar
    21    14    15   ar
    22    15    16   ar
    23    16    17   ar
    24    17    18   ar
    25     5     6   ar
    26     6     7   ar
    27    29    30   ar
    28    30    31   ar
    29    31    32   ar
    30    32    24   ar
    31    31    26   ar
    32     7     2   ar
    33    18    13   ar
    34    23    33    1
    35    23    34    1
    36    21    22    1
    37    10    11    1
