@<TRIPOS>MOLECULE
*****
 20 21 0 0 0
SMALL
GASTEIGER

@<TRIPOS>ATOM
      1 S         139.5654  139.8748  165.1393 S.O2    1  UNL1        0.0316
      2 O         138.2510  139.6772  165.8344 O.2     1  UNL1       -0.1641
      3 O         140.8798  140.0725  164.4441 O.2     1  UNL1       -0.1641
      4 C         138.3645  140.8299  163.0427 C.ar    1  UNL1        0.1561
      5 C         137.6960  140.6139  161.7174 C.ar    1  UNL1        0.0382
      6 C         137.5600  139.2266  161.1633 C.ar    1  UNL1        0.0032
      7 C         138.0924  138.0554  161.9345 C.ar    1  UNL1        0.0015
      8 C         138.7608  138.2715  163.2598 C.ar    1  UNL1        0.0219
      9 C         138.8969  139.6588  163.8139 C.ar    1  UNL1        0.1441
     10 C         137.7365  143.3501  162.9782 C.3     1  UNL1        0.2525
     11 O         138.5006  142.2172  163.5967 O.3     1  UNL1       -0.4701
     12 C         140.2338  140.0909  166.4646 C.2     1  UNL1        0.1278
     13 C         140.0973  141.4089  167.1674 C.2     1  UNL1        0.0209
     14 C         140.7658  141.6249  168.4928 C.ar    1  UNL1        0.0119
     15 C         142.0649  142.3713  168.5647 C.ar    1  UNL1        0.0009
     16 C         142.7334  142.5873  169.8900 C.ar    1  UNL1        0.0001
     17 C         142.1027  142.0570  171.1434 C.ar    1  UNL1        0.0009
     18 C         140.8036  141.3106  171.0714 C.ar    1  UNL1        0.0114
     19 C         140.1351  141.0946  169.7462 C.ar    1  UNL1        0.0577
     20 CL        138.8360  140.3482  169.6742 Cl      1  UNL1       -0.0822
@<TRIPOS>BOND
     1    10    11    1
     2    11     4    1
     3     4     5   ar
     4     5     6   ar
     5     6     7   ar
     6     7     8   ar
     7     8     9   ar
     8     9     1    1
     9     1     2    2
    10     1     3    2
    11     1    12    1
    12    12    13    2
    13    13    14    1
    14    14    15   ar
    15    15    16   ar
    16    16    17   ar
    17    17    18   ar
    18    18    19   ar
    19    19    20    1
    20     9     4   ar
    21    19    14   ar
@<TRIPOS>MOLECULE
*****
 20 21 0 0 0
SMALL
GASTEIGER

@<TRIPOS>ATOM
      1 S         139.3477  139.9641  165.1697 S.O2    1  UNL1        0.0316
      2 O         138.0133  139.7040  165.8033 O.2     1  UNL1       -0.1641
      3 O         140.6822  140.2243  164.5361 O.2     1  UNL1       -0.1641
      4 C         138.2023  140.8690  163.0204 C.ar    1  UNL1        0.1561
      5 C         137.6063  140.6261  161.6656 C.ar    1  UNL1        0.0382
      6 C         137.5596  139.2356  161.1050 C.ar    1  UNL1        0.0032
      7 C         138.1090  138.0879  161.8993 C.ar    1  UNL1        0.0015
      8 C         138.7050  138.3308  163.2542 C.ar    1  UNL1        0.0219
      9 C         138.7516  139.7213  163.8148 C.ar    1  UNL1        0.1441
     10 C         137.7875  143.4193  162.7492 C.3     1  UNL1        0.2525
     11 O         138.2490  142.2595  163.5810 O.3     1  UNL1       -0.4701
     12 C         139.9437  140.2069  166.5246 C.2     1  UNL1        0.1278
     13 C         140.3240  141.5977  166.9384 C.2     1  UNL1        0.0209
     14 C         140.9200  141.8405  168.2934 C.ar    1  UNL1        0.0119
     15 C         140.0668  141.7175  169.5210 C.ar    1  UNL1        0.0009
     16 C         140.6628  141.9603  170.8759 C.ar    1  UNL1        0.0001
     17 C         142.1119  142.3260  171.0033 C.ar    1  UNL1        0.0009
     18 C         142.9651  142.4489  169.7757 C.ar    1  UNL1        0.0114
     19 C         142.3691  142.2061  168.4208 C.ar    1  UNL1        0.0577
     20 CL        143.2223  142.3291  167.1932 Cl      1  UNL1       -0.0822
@<TRIPOS>BOND
     1    10    11    1
     2    11     4    1
     3     4     5   ar
     4     5     6   ar
     5     6     7   ar
     6     7     8   ar
     7     8     9   ar
     8     9     1    1
     9     1     2    2
    10     1     3    2
    11     1    12    1
    12    12    13    2
    13    13    14    1
    14    14    15   ar
    15    15    16   ar
    16    16    17   ar
    17    17    18   ar
    18    18    19   ar
    19    19    20    1
    20     9     4   ar
    21    19    14   ar
@<TRIPOS>MOLECULE
*****
 20 21 0 0 0
SMALL
GASTEIGER

@<TRIPOS>ATOM
      1 S         140.1887  141.9114  166.5885 S.O2    1  UNL1        0.0316
      2 O         139.6503  140.7111  167.3090 O.2     1  UNL1       -0.1641
      3 O         140.7271  143.1118  165.8680 O.2     1  UNL1       -0.1641
      4 C         142.3697  141.6924  167.9832 C.ar    1  UNL1        0.1561
      5 C         143.1804  142.0544  169.1922 C.ar    1  UNL1        0.0382
      6 C         142.6207  142.9976  170.2155 C.ar    1  UNL1        0.0032
      7 C         141.2504  143.5787  170.0299 C.ar    1  UNL1        0.0015
      8 C         140.4398  143.2166  168.8209 C.ar    1  UNL1        0.0219
      9 C         140.9994  142.2735  167.7976 C.ar    1  UNL1        0.1441
     10 C         142.8770  139.2689  167.1961 C.3     1  UNL1        0.2525
     11 O         142.9294  140.7492  166.9599 O.3     1  UNL1       -0.4701
     12 C         139.3780  141.5494  165.3795 C.2     1  UNL1        0.1278
     13 C         139.9186  140.5707  164.3796 C.2     1  UNL1        0.0209
     14 C         139.1078  140.2086  163.1706 C.ar    1  UNL1        0.0119
     15 C         138.7978  141.2497  162.1362 C.ar    1  UNL1        0.0009
     16 C         137.9871  140.8878  160.9272 C.ar    1  UNL1        0.0001
     17 C         137.4863  139.4847  160.7527 C.ar    1  UNL1        0.0009
     18 C         137.7963  138.4436  161.7871 C.ar    1  UNL1        0.0114
     19 C         138.6070  138.8055  162.9960 C.ar    1  UNL1        0.0577
     20 CL        138.9170  137.7644  164.0304 Cl      1  UNL1       -0.0822
@<TRIPOS>BOND
     1    10    11    1
     2    11     4    1
     3     4     5   ar
     4     5     6   ar
     5     6     7   ar
     6     7     8   ar
     7     8     9   ar
     8     9     1    1
     9     1     2    2
    10     1     3    2
    11     1    12    1
    12    12    13    2
    13    13    14    1
    14    14    15   ar
    15    15    16   ar
    16    16    17   ar
    17    17    18   ar
    18    18    19   ar
    19    19    20    1
    20     9     4   ar
    21    19    14   ar
@<TRIPOS>MOLECULE
*****
 20 21 0 0 0
SMALL
GASTEIGER

@<TRIPOS>ATOM
      1 S         139.2989  140.0580  165.2174 S.O2    1  UNL1        0.0316
      2 O         140.5607  140.5872  164.6027 O.2     1  UNL1       -0.1641
      3 O         138.0372  139.5288  165.8321 O.2     1  UNL1       -0.1641
      4 C         138.9152  138.4609  163.2044 C.ar    1  UNL1        0.1561
      5 C         138.3554  138.2067  161.8362 C.ar    1  UNL1        0.0382
      6 C         137.6194  139.2953  161.1128 C.ar    1  UNL1        0.0032
      7 C         137.4432  140.6381  161.7576 C.ar    1  UNL1        0.0015
      8 C         138.0031  140.8923  163.1258 C.ar    1  UNL1        0.0219
      9 C         138.7391  139.8037  163.8491 C.ar    1  UNL1        0.1441
     10 C         141.1015  137.1251  163.6354 C.3     1  UNL1        0.2525
     11 O         139.6512  137.3723  163.9277 O.3     1  UNL1       -0.4701
     12 C         139.8588  140.3122  166.5855 C.2     1  UNL1        0.1278
     13 C         140.4111  141.6635  166.9307 C.2     1  UNL1        0.0209
     14 C         140.9709  141.9177  168.2989 C.ar    1  UNL1        0.0119
     15 C         140.0811  141.8234  169.5028 C.ar    1  UNL1        0.0009
     16 C         140.6409  142.0776  170.8710 C.ar    1  UNL1        0.0001
     17 C         142.0906  142.4262  171.0352 C.ar    1  UNL1        0.0009
     18 C         142.9804  142.5205  169.8314 C.ar    1  UNL1        0.0114
     19 C         142.4206  142.2663  168.4632 C.ar    1  UNL1        0.0577
     20 CL        143.3104  142.3607  167.2593 Cl      1  UNL1       -0.0822
@<TRIPOS>BOND
     1    10    11    1
     2    11     4    1
     3     4     5   ar
     4     5     6   ar
     5     6     7   ar
     6     7     8   ar
     7     8     9   ar
     8     9     1    1
     9     1     2    2
    10     1     3    2
    11     1    12    1
    12    12    13    2
    13    13    14    1
    14    14    15   ar
    15    15    16   ar
    16    16    17   ar
    17    17    18   ar
    18    18    19   ar
    19    19    20    1
    20     9     4   ar
    21    19    14   ar
@<TRIPOS>MOLECULE
*****
 20 21 0 0 0
SMALL
GASTEIGER

@<TRIPOS>ATOM
      1 S         139.3140  140.4898  165.0945 S.O2    1  UNL1        0.0316
      2 O         138.0987  140.0382  165.8487 O.2     1  UNL1       -0.1641
      3 O         140.5294  140.9413  164.3403 O.2     1  UNL1       -0.1641
      4 C         138.9880  138.3734  163.6231 C.ar    1  UNL1        0.1561
      5 C         138.4566  137.7256  162.3790 C.ar    1  UNL1        0.0382
      6 C         137.7199  138.5460  161.3621 C.ar    1  UNL1        0.0032
      7 C         137.5146  140.0144  161.5893 C.ar    1  UNL1        0.0015
      8 C         138.0459  140.6623  162.8334 C.ar    1  UNL1        0.0219
      9 C         138.7827  139.8418  163.8503 C.ar    1  UNL1        0.1441
     10 C         141.1729  137.2231  164.4310 C.3     1  UNL1        0.2525
     11 O         139.7247  137.5529  164.6400 O.3     1  UNL1       -0.4701
     12 C         139.8454  141.1377  166.3386 C.2     1  UNL1        0.1278
     13 C         140.6418  140.3324  167.3221 C.2     1  UNL1        0.0209
     14 C         141.1731  140.9804  168.5663 C.ar    1  UNL1        0.0119
     15 C         142.5422  141.5931  168.5667 C.ar    1  UNL1        0.0009
     16 C         143.0736  142.2411  169.8107 C.ar    1  UNL1        0.0001
     17 C         142.2358  142.2763  171.0544 C.ar    1  UNL1        0.0009
     18 C         140.8666  141.6635  171.0540 C.ar    1  UNL1        0.0114
     19 C         140.3353  141.0156  169.8100 C.ar    1  UNL1        0.0577
     20 CL        138.9662  140.4028  169.8096 Cl      1  UNL1       -0.0822
@<TRIPOS>BOND
     1    10    11    1
     2    11     4    1
     3     4     5   ar
     4     5     6   ar
     5     6     7   ar
     6     7     8   ar
     7     8     9   ar
     8     9     1    1
     9     1     2    2
    10     1     3    2
    11     1    12    1
    12    12    13    2
    13    13    14    1
    14    14    15   ar
    15    15    16   ar
    16    16    17   ar
    17    17    18   ar
    18    18    19   ar
    19    19    20    1
    20     9     4   ar
    21    19    14   ar
@<TRIPOS>MOLECULE
*****
 20 21 0 0 0
SMALL
GASTEIGER

@<TRIPOS>ATOM
      1 S         142.7098  139.8192  164.9869 S.O2    1  UNL1        0.0316
      2 O         143.4297  138.6614  165.6123 O.2     1  UNL1       -0.1641
      3 O         141.9900  140.9771  164.3615 O.2     1  UNL1       -0.1641
      4 C         144.0870  139.4660  162.8123 C.ar    1  UNL1        0.1561
      5 C         144.2422  138.8327  161.4615 C.ar    1  UNL1        0.0382
      6 C         143.1754  137.9195  160.9342 C.ar    1  UNL1        0.0032
      7 C         141.9535  137.6395  161.7578 C.ar    1  UNL1        0.0015
      8 C         141.7983  138.2727  163.1087 C.ar    1  UNL1        0.0219
      9 C         142.8651  139.1860  163.6359 C.ar    1  UNL1        0.1441
     10 C         145.2905  141.7683  162.7905 C.3     1  UNL1        0.2525
     11 O         145.1538  140.3792  163.3396 O.3     1  UNL1       -0.4701
     12 C         142.5546  140.4524  166.3377 C.2     1  UNL1        0.1278
     13 C         141.3188  140.1967  167.1484 C.2     1  UNL1        0.0209
     14 C         141.1636  140.8299  168.4994 C.ar    1  UNL1        0.0119
     15 C         140.4183  142.1241  168.6399 C.ar    1  UNL1        0.0009
     16 C         140.2631  142.7573  169.9908 C.ar    1  UNL1        0.0001
     17 C         140.8532  142.0964  171.2011 C.ar    1  UNL1        0.0009
     18 C         141.5985  140.8023  171.0606 C.ar    1  UNL1        0.0114
     19 C         141.7537  140.1690  169.7097 C.ar    1  UNL1        0.0577
     20 CL        142.4990  138.8749  169.5692 Cl      1  UNL1       -0.0822
@<TRIPOS>BOND
     1    10    11    1
     2    11     4    1
     3     4     5   ar
     4     5     6   ar
     5     6     7   ar
     6     7     8   ar
     7     8     9   ar
     8     9     1    1
     9     1     2    2
    10     1     3    2
    11     1    12    1
    12    12    13    2
    13    13    14    1
    14    14    15   ar
    15    15    16   ar
    16    16    17   ar
    17    17    18   ar
    18    18    19   ar
    19    19    20    1
    20     9     4   ar
    21    19    14   ar
@<TRIPOS>MOLECULE
*****
 20 21 0 0 0
SMALL
GASTEIGER

@<TRIPOS>ATOM
      1 S         141.5773  143.2378  164.2463 S.O2    1  UNL1        0.0316
      2 O         142.5876  144.2924  164.5885 O.2     1  UNL1       -0.1641
      3 O         140.5669  142.1833  163.9041 O.2     1  UNL1       -0.1641
      4 C         139.9858  144.9620  163.1308 C.ar    1  UNL1        0.1561
      5 C         139.5664  145.7542  161.9281 C.ar    1  UNL1        0.0382
      6 C         140.3190  145.6143  160.6382 C.ar    1  UNL1        0.0032
      7 C         141.4911  144.6823  160.5509 C.ar    1  UNL1        0.0015
      8 C         141.9104  143.8902  161.7536 C.ar    1  UNL1        0.0219
      9 C         141.1578  144.0300  163.0436 C.ar    1  UNL1        0.1441
     10 C         137.9560  144.3435  164.6300 C.3     1  UNL1        0.2525
     11 O         139.2331  145.1019  164.4208 O.3     1  UNL1       -0.4701
     12 C         141.9967  142.4457  165.4490 C.2     1  UNL1        0.1278
     13 C         141.0829  142.3406  166.6339 C.2     1  UNL1        0.0209
     14 C         141.5025  141.5484  167.8367 C.ar    1  UNL1        0.0119
     15 C         142.1658  140.2144  167.6620 C.ar    1  UNL1        0.0009
     16 C         142.5853  139.4222  168.8647 C.ar    1  UNL1        0.0001
     17 C         142.3415  139.9640  170.2419 C.ar    1  UNL1        0.0009
     18 C         141.6782  141.2980  170.4166 C.ar    1  UNL1        0.0114
     19 C         141.2586  142.0902  169.2139 C.ar    1  UNL1        0.0577
     20 CL        140.5953  143.4241  169.3886 Cl      1  UNL1       -0.0822
@<TRIPOS>BOND
     1    10    11    1
     2    11     4    1
     3     4     5   ar
     4     5     6   ar
     5     6     7   ar
     6     7     8   ar
     7     8     9   ar
     8     9     1    1
     9     1     2    2
    10     1     3    2
    11     1    12    1
    12    12    13    2
    13    13    14    1
    14    14    15   ar
    15    15    16   ar
    16    16    17   ar
    17    17    18   ar
    18    18    19   ar
    19    19    20    1
    20     9     4   ar
    21    19    14   ar
@<TRIPOS>MOLECULE
*****
 20 21 0 0 0
SMALL
GASTEIGER

@<TRIPOS>ATOM
      1 S         140.1051  143.4422  164.6689 S.O2    1  UNL1        0.0316
      2 O         139.1239  144.5601  164.8628 O.2     1  UNL1       -0.1641
      3 O         141.0862  142.3243  164.4750 O.2     1  UNL1       -0.1641
      4 C         141.1066  144.7461  162.6572 C.ar    1  UNL1        0.1561
      5 C         141.1448  145.0349  161.1858 C.ar    1  UNL1        0.0382
      6 C         140.2198  144.3088  160.2547 C.ar    1  UNL1        0.0032
      7 C         139.2565  143.2939  160.7949 C.ar    1  UNL1        0.0015
      8 C         139.2183  143.0050  162.2663 C.ar    1  UNL1        0.0219
      9 C         140.1433  143.7311  163.1974 C.ar    1  UNL1        0.1441
     10 C         143.4706  145.0606  163.6879 C.3     1  UNL1        0.2525
     11 O         142.0317  145.4721  163.5884 O.3     1  UNL1       -0.4701
     12 C         140.0668  143.1533  166.1403 C.2     1  UNL1        0.1278
     13 C         140.9523  142.0899  166.7192 C.2     1  UNL1        0.0209
     14 C         140.9140  141.8011  168.1906 C.ar    1  UNL1        0.0119
     15 C         141.7118  142.6435  169.1413 C.ar    1  UNL1        0.0009
     16 C         141.6735  142.3547  170.6127 C.ar    1  UNL1        0.0001
     17 C         140.8374  141.2235  171.1334 C.ar    1  UNL1        0.0009
     18 C         140.0396  140.3810  170.1828 C.ar    1  UNL1        0.0114
     19 C         140.0779  140.6698  168.7113 C.ar    1  UNL1        0.0577
     20 CL        139.2801  139.8273  167.7607 Cl      1  UNL1       -0.0822
@<TRIPOS>BOND
     1    10    11    1
     2    11     4    1
     3     4     5   ar
     4     5     6   ar
     5     6     7   ar
     6     7     8   ar
     7     8     9   ar
     8     9     1    1
     9     1     2    2
    10     1     3    2
    11     1    12    1
    12    12    13    2
    13    13    14    1
    14    14    15   ar
    15    15    16   ar
    16    16    17   ar
    17    17    18   ar
    18    18    19   ar
    19    19    20    1
    20     9     4   ar
    21    19    14   ar
@<TRIPOS>MOLECULE
*****
 20 21 0 0 0
SMALL
GASTEIGER

@<TRIPOS>ATOM
      1 S         140.6781  142.9901  164.5607 S.O2    1  UNL1        0.0316
      2 O         139.2766  142.4810  164.3978 O.2     1  UNL1       -0.1641
      3 O         142.0796  143.4991  164.7236 O.2     1  UNL1       -0.1641
      4 C         140.9645  143.1570  161.9838 C.ar    1  UNL1        0.1561
      5 C         140.8293  143.9368  160.7096 C.ar    1  UNL1        0.0382
      6 C         140.2726  145.3294  160.7379 C.ar    1  UNL1        0.0032
      7 C         139.8511  145.9422  162.0405 C.ar    1  UNL1        0.0015
      8 C         139.9863  145.1624  163.3147 C.ar    1  UNL1        0.0219
      9 C         140.5429  143.7698  163.2864 C.ar    1  UNL1        0.1441
     10 C         140.6562  140.6197  161.5179 C.3     1  UNL1        0.2525
     11 O         141.5211  141.7644  161.9555 O.3     1  UNL1       -0.4701
     12 C         140.8132  142.2103  165.8349 C.2     1  UNL1        0.1278
     13 C         140.4374  142.8405  167.1432 C.2     1  UNL1        0.0209
     14 C         140.5726  142.0607  168.4175 C.ar    1  UNL1        0.0119
     15 C         140.7554  140.5726  168.3703 C.ar    1  UNL1        0.0009
     16 C         140.8905  139.7928  169.6445 C.ar    1  UNL1        0.0001
     17 C         140.8428  140.5010  170.9659 C.ar    1  UNL1        0.0009
     18 C         140.6600  141.9891  171.0131 C.ar    1  UNL1        0.0114
     19 C         140.5249  142.7689  169.7389 C.ar    1  UNL1        0.0577
     20 CL        140.3421  144.2570  169.7861 Cl      1  UNL1       -0.0822
@<TRIPOS>BOND
     1    10    11    1
     2    11     4    1
     3     4     5   ar
     4     5     6   ar
     5     6     7   ar
     6     7     8   ar
     7     8     9   ar
     8     9     1    1
     9     1     2    2
    10     1     3    2
    11     1    12    1
    12    12    13    2
    13    13    14    1
    14    14    15   ar
    15    15    16   ar
    16    16    17   ar
    17    17    18   ar
    18    18    19   ar
    19    19    20    1
    20     9     4   ar
    21    19    14   ar
