@<TRIPOS>MOLECULE
*****
 23 25 0 0 0
SMALL
GASTEIGER

@<TRIPOS>ATOM
      1 C         140.6665  140.8649  166.5690 C.ar    1  UNL1        0.0267
      2 C         140.9219  139.4026  166.3535 C.ar    1  UNL1        0.1011
      3 N         140.2832  138.6922  165.1971 N.ar    1  UNL1       -0.2251
      4 C         139.3892  139.4441  164.2561 C.ar    1  UNL1        0.1633
      5 C         139.1339  140.9064  164.4715 C.ar    1  UNL1        0.0986
      6 C         139.7725  141.6168  165.6280 C.ar    1  UNL1        0.0224
      7 N         138.2134  141.3810  163.3864 N.ar    1  UNL1       -0.2694
      8 C         137.8999  140.2120  162.5003 C.ar    1  UNL1        0.3331
      9 O         137.0150  140.2359  161.2893 O.2     1  UNL1       -0.2462
     10 N         138.6266  139.0149  163.0378 N.ar    1  UNL1       -0.2630
     11 C         138.5960  137.6315  162.4586 C.3     1  UNL1        0.1366
     12 C         144.2621  142.6631  169.9924 C.3     1  UNL1        0.0316
     13 C         142.9578  142.4019  169.2990 C.ar    1  UNL1       -0.0149
     14 C         141.6178  142.9355  169.7112 C.ar    1  UNL1        0.0312
     15 S         140.5964  142.4247  168.7387 S.2     1  UNL1       -0.0867
     16 C         141.3051  141.5754  167.7255 C.ar    1  UNL1        0.0307
     17 C         142.7645  141.5614  168.0718 C.ar    1  UNL1        0.0028
     18 C         137.6971  142.7791  163.2172 C.3     1  UNL1        0.1956
     19 C         138.4423  143.7546  162.3551 C.2     1  UNL1        0.2490
     20 O         138.4235  143.6035  160.8628 O.2     1  UNL1       -0.2728
     21 N         139.2064  144.8811  162.9852 N.am    1  UNL1       -0.2744
     22 C         139.9515  145.8566  162.1231 C.3     1  UNL1        0.1150
     23 C         139.2253  145.0323  164.4774 C.3     1  UNL1        0.1150
@<TRIPOS>BOND
     1    12    13    1
     2    13    14   ar
     3    14    15   ar
     4    15    16   ar
     5    16     1    1
     6     1     2   ar
     7     2     3   ar
     8     3     4   ar
     9     4     5   ar
    10     5     6   ar
    11     5     7   ar
    12     7    18    1
    13    18    19    1
    14    19    20    2
    15    19    21   am
    16    21    22    1
    17    21    23    1
    18     7     8   ar
    19     8     9    2
    20     8    10   ar
    21    10    11    1
    22    16    17   ar
    23    17    13   ar
    24     6     1   ar
    25    10     4   ar
@<TRIPOS>MOLECULE
*****
 23 25 0 0 0
SMALL
GASTEIGER

@<TRIPOS>ATOM
      1 C         140.4907  142.1403  166.6918 C.ar    1  UNL1        0.0267
      2 C         139.7426  140.8486  166.5445 C.ar    1  UNL1        0.1011
      3 N         138.9678  140.5693  165.2908 N.ar    1  UNL1       -0.2251
      4 C         138.9411  141.5818  164.1844 C.ar    1  UNL1        0.1633
      5 C         139.6892  142.8736  164.3317 C.ar    1  UNL1        0.0986
      6 C         140.4640  143.1528  165.5854 C.ar    1  UNL1        0.0224
      7 N         139.4803  143.6754  163.0813 N.ar    1  UNL1       -0.2694
      8 C         138.6030  142.8791  162.1612 C.ar    1  UNL1        0.3331
      9 O         138.1403  143.3025  160.7986 O.2     1  UNL1       -0.2462
     10 N         138.2698  141.5852  162.8430 N.ar    1  UNL1       -0.2630
     11 C         137.4154  140.4875  162.2819 C.3     1  UNL1        0.1366
     12 C         144.4545  142.5823  170.1522 C.3     1  UNL1        0.0316
     13 C         143.0874  142.6228  169.5360 C.ar    1  UNL1       -0.0149
     14 C         141.8281  143.0760  170.2134 C.ar    1  UNL1        0.0312
     15 S         140.7021  142.9505  169.2303 S.2     1  UNL1       -0.0867
     16 C         141.2655  142.4196  167.9455 C.ar    1  UNL1        0.0307
     17 C         142.7397  142.2171  168.1344 C.ar    1  UNL1        0.0028
     18 C         140.0487  145.0347  162.8003 C.3     1  UNL1        0.1956
     19 C         140.1051  145.5476  161.3919 C.2     1  UNL1        0.2490
     20 O         139.1273  146.5884  160.9330 O.2     1  UNL1       -0.2728
     21 N         141.1393  145.0197  160.4423 N.am    1  UNL1       -0.2744
     22 C         141.1957  145.5327  159.0338 C.3     1  UNL1        0.1150
     23 C         142.1172  143.9790  160.9011 C.3     1  UNL1        0.1150
@<TRIPOS>BOND
     1    12    13    1
     2    13    14   ar
     3    14    15   ar
     4    15    16   ar
     5    16     1    1
     6     1     2   ar
     7     2     3   ar
     8     3     4   ar
     9     4     5   ar
    10     5     6   ar
    11     5     7   ar
    12     7    18    1
    13    18    19    1
    14    19    20    2
    15    19    21   am
    16    21    22    1
    17    21    23    1
    18     7     8   ar
    19     8     9    2
    20     8    10   ar
    21    10    11    1
    22    16    17   ar
    23    17    13   ar
    24     6     1   ar
    25    10     4   ar
@<TRIPOS>MOLECULE
*****
 23 25 0 0 0
SMALL
GASTEIGER

@<TRIPOS>ATOM
      1 C         141.9526  140.8132  167.0907 C.ar    1  UNL1        0.0267
      2 C         142.9415  141.9335  166.9602 C.ar    1  UNL1        0.1011
      3 N         143.7774  142.0553  165.7207 N.ar    1  UNL1       -0.2251
      4 C         143.6244  141.0569  164.6117 C.ar    1  UNL1        0.1633
      5 C         142.6355  139.9367  164.7422 C.ar    1  UNL1        0.0986
      6 C         141.7997  139.8148  165.9817 C.ar    1  UNL1        0.0224
      7 N         142.7050  139.1092  163.4930 N.ar    1  UNL1       -0.2694
      8 C         143.7368  139.7181  162.5904 C.ar    1  UNL1        0.3331
      9 O         144.1311  139.2120  161.2345 O.2     1  UNL1       -0.2462
     10 N         144.3051  140.9219  163.2818 N.ar    1  UNL1       -0.2630
     11 C         145.3674  141.8309  162.7387 C.3     1  UNL1        0.1366
     12 C         137.8856  139.9179  170.3371 C.3     1  UNL1        0.0316
     13 C         139.2473  140.2798  169.8224 C.ar    1  UNL1       -0.0149
     14 C         140.4134  140.7276  170.6529 C.ar    1  UNL1        0.0312
     15 S         141.5688  140.9820  169.7307 S.2     1  UNL1       -0.0867
     16 C         141.1167  140.6913  168.3302 C.ar    1  UNL1        0.0307
     17 C         139.6820  140.2573  168.3870 C.ar    1  UNL1        0.0028
     18 C         141.8863  137.8874  163.1982 C.3     1  UNL1        0.1956
     19 C         140.6987  137.9823  162.2868 C.2     1  UNL1        0.2490
     20 O         140.8985  138.1316  160.8077 O.2     1  UNL1       -0.2728
     21 N         139.3114  137.9278  162.8545 N.am    1  UNL1       -0.2744
     22 C         138.1238  138.0227  161.9431 C.3     1  UNL1        0.1150
     23 C         139.1115  137.7785  164.3336 C.3     1  UNL1        0.1150
@<TRIPOS>BOND
     1    12    13    1
     2    13    14   ar
     3    14    15   ar
     4    15    16   ar
     5    16     1    1
     6     1     2   ar
     7     2     3   ar
     8     3     4   ar
     9     4     5   ar
    10     5     6   ar
    11     5     7   ar
    12     7    18    1
    13    18    19    1
    14    19    20    2
    15    19    21   am
    16    21    22    1
    17    21    23    1
    18     7     8   ar
    19     8     9    2
    20     8    10   ar
    21    10    11    1
    22    16    17   ar
    23    17    13   ar
    24     6     1   ar
    25    10     4   ar
@<TRIPOS>MOLECULE
*****
 23 25 0 0 0
SMALL
GASTEIGER

@<TRIPOS>ATOM
      1 C         140.8228  142.6040  165.6118 C.ar    1  UNL1        0.0267
      2 C         140.1937  143.1993  166.8365 C.ar    1  UNL1        0.1011
      3 N         140.3987  142.5530  168.1745 N.ar    1  UNL1       -0.2251
      4 C         141.2326  141.3114  168.2878 C.ar    1  UNL1        0.1633
      5 C         141.8616  140.7160  167.0631 C.ar    1  UNL1        0.0986
      6 C         141.6567  141.3623  165.7251 C.ar    1  UNL1        0.0224
      7 N         142.6264  139.4954  167.4816 N.ar    1  UNL1       -0.2694
      8 C         142.4701  139.3364  168.9650 C.ar    1  UNL1        0.3331
      9 O         143.0699  138.2463  169.8029 O.2     1  UNL1       -0.2462
     10 N         141.6086  140.4587  169.4632 N.ar    1  UNL1       -0.2630
     11 C         141.1957  140.6881  170.8869 C.3     1  UNL1        0.1366
     12 C         139.8238  146.1903  161.8673 C.3     1  UNL1        0.0316
     13 C         140.1587  144.8987  162.5526 C.ar    1  UNL1       -0.0149
     14 C         140.4465  143.5908  161.8768 C.ar    1  UNL1        0.0312
     15 S         140.7303  142.5721  162.9405 S.2     1  UNL1       -0.0867
     16 C         140.6179  143.2503  164.2737 C.ar    1  UNL1        0.0307
     17 C         140.2646  144.6882  164.0339 C.ar    1  UNL1        0.0028
     18 C         143.4100  138.5924  166.5758 C.3     1  UNL1        0.1956
     19 C         142.9244  138.3229  165.1824 C.2     1  UNL1        0.2490
     20 O         141.6734  137.5243  164.9654 O.2     1  UNL1       -0.2728
     21 N         143.6898  138.8521  164.0059 N.am    1  UNL1       -0.2744
     22 C         143.2043  138.5827  162.6125 C.3     1  UNL1        0.1150
     23 C         144.9409  139.6507  164.2228 C.3     1  UNL1        0.1150
@<TRIPOS>BOND
     1    12    13    1
     2    13    14   ar
     3    14    15   ar
     4    15    16   ar
     5    16     1    1
     6     1     2   ar
     7     2     3   ar
     8     3     4   ar
     9     4     5   ar
    10     5     6   ar
    11     5     7   ar
    12     7    18    1
    13    18    19    1
    14    19    20    2
    15    19    21   am
    16    21    22    1
    17    21    23    1
    18     7     8   ar
    19     8     9    2
    20     8    10   ar
    21    10    11    1
    22    16    17   ar
    23    17    13   ar
    24     6     1   ar
    25    10     4   ar
@<TRIPOS>MOLECULE
*****
 23 25 0 0 0
SMALL
GASTEIGER

@<TRIPOS>ATOM
      1 C         141.5544  141.6600  166.8331 C.ar    1  UNL1        0.0267
      2 C         140.4585  142.6732  166.6835 C.ar    1  UNL1        0.1011
      3 N         140.4011  143.5409  165.4614 N.ar    1  UNL1       -0.2251
      4 C         141.4395  143.3955  164.3888 C.ar    1  UNL1        0.1633
      5 C         142.5354  142.3823  164.5384 C.ar    1  UNL1        0.0986
      6 C         142.5928  141.5146  165.7606 C.ar    1  UNL1        0.0224
      7 N         143.4127  142.4658  163.3246 N.ar    1  UNL1       -0.2694
      8 C         142.8591  143.5306  162.4248 C.ar    1  UNL1        0.3331
      9 O         143.4255  143.9476  161.0999 O.2     1  UNL1       -0.2462
     10 N         141.6395  144.1052  163.0825 N.ar    1  UNL1       -0.2630
     11 C         140.7723  145.1977  162.5308 C.3     1  UNL1        0.1366
     12 C         143.0635  137.9996  170.3267 C.3     1  UNL1        0.0316
     13 C         142.3055  139.1098  169.6611 C.ar    1  UNL1       -0.0149
     14 C         141.0949  139.8041  170.2111 C.ar    1  UNL1        0.0312
     15 S         140.6662  140.8440  169.2186 S.2     1  UNL1       -0.0867
     16 C         141.6118  140.7923  168.0553 C.ar    1  UNL1        0.0307
     17 C         142.6249  139.7205  168.3288 C.ar    1  UNL1        0.0028
     18 C         144.6300  141.6310  163.0575 C.3     1  UNL1        0.1956
     19 C         144.5031  140.1429  162.9179 C.2     1  UNL1        0.2490
     20 O         144.7952  139.2522  164.0890 O.2     1  UNL1       -0.2728
     21 N         144.0842  139.5455  161.6074 N.am    1  UNL1       -0.2744
     22 C         143.9573  138.0574  161.4679 C.3     1  UNL1        0.1150
     23 C         143.7921  140.4362  160.4363 C.3     1  UNL1        0.1150
@<TRIPOS>BOND
     1    12    13    1
     2    13    14   ar
     3    14    15   ar
     4    15    16   ar
     5    16     1    1
     6     1     2   ar
     7     2     3   ar
     8     3     4   ar
     9     4     5   ar
    10     5     6   ar
    11     5     7   ar
    12     7    18    1
    13    18    19    1
    14    19    20    2
    15    19    21   am
    16    21    22    1
    17    21    23    1
    18     7     8   ar
    19     8     9    2
    20     8    10   ar
    21    10    11    1
    22    16    17   ar
    23    17    13   ar
    24     6     1   ar
    25    10     4   ar
@<TRIPOS>MOLECULE
*****
 23 25 0 0 0
SMALL
GASTEIGER

@<TRIPOS>ATOM
      1 C         142.1171  139.8055  165.8576 C.ar    1  UNL1        0.0267
      2 C         142.3745  138.4693  165.2266 C.ar    1  UNL1        0.1011
      3 N         142.9093  138.3912  163.8274 N.ar    1  UNL1       -0.2251
      4 C         143.1867  139.6494  163.0592 C.ar    1  UNL1        0.1633
      5 C         142.9293  140.9856  163.6902 C.ar    1  UNL1        0.0986
      6 C         142.3945  141.0637  165.0894 C.ar    1  UNL1        0.0224
      7 N         143.2958  142.0465  162.6951 N.ar    1  UNL1       -0.2694
      8 C         143.7797  141.3659  161.4490 C.ar    1  UNL1        0.3331
      9 O         144.2486  142.0473  160.1976 O.2     1  UNL1       -0.2462
     10 N         143.7123  139.8844  161.6740 N.ar    1  UNL1       -0.2630
     11 C         144.1020  138.8241  160.6872 C.3     1  UNL1        0.1366
     12 C         138.8393  140.3928  169.9555 C.3     1  UNL1        0.0316
     13 C         140.0756  140.1536  169.1404 C.ar    1  UNL1       -0.0149
     14 C         141.4429  139.8540  169.6798 C.ar    1  UNL1        0.0312
     15 S         142.3740  139.6872  168.5157 S.2     1  UNL1       -0.0867
     16 C         141.5822  139.8836  167.2569 C.ar    1  UNL1        0.0307
     17 C         140.1618  140.1718  167.6430 C.ar    1  UNL1        0.0028
     18 C         143.1959  143.5278  162.9086 C.3     1  UNL1        0.1956
     19 C         142.1567  144.3229  162.1752 C.2     1  UNL1        0.2490
     20 O         142.3529  144.6577  160.7263 O.2     1  UNL1       -0.2728
     21 N         140.9213  144.7831  162.8907 N.am    1  UNL1       -0.2744
     22 C         139.8821  145.5782  162.1572 C.3     1  UNL1        0.1150
     23 C         140.7250  144.4484  164.3396 C.3     1  UNL1        0.1150
@<TRIPOS>BOND
     1    12    13    1
     2    13    14   ar
     3    14    15   ar
     4    15    16   ar
     5    16     1    1
     6     1     2   ar
     7     2     3   ar
     8     3     4   ar
     9     4     5   ar
    10     5     6   ar
    11     5     7   ar
    12     7    18    1
    13    18    19    1
    14    19    20    2
    15    19    21   am
    16    21    22    1
    17    21    23    1
    18     7     8   ar
    19     8     9    2
    20     8    10   ar
    21    10    11    1
    22    16    17   ar
    23    17    13   ar
    24     6     1   ar
    25    10     4   ar
@<TRIPOS>MOLECULE
*****
 23 25 0 0 0
SMALL
GASTEIGER

@<TRIPOS>ATOM
      1 C         140.4144  143.0447  165.9757 C.ar    1  UNL1        0.0267
      2 C         139.3282  144.0584  165.7696 C.ar    1  UNL1        0.1011
      3 N         139.2652  144.8409  164.4914 N.ar    1  UNL1       -0.2251
      4 C         140.2885  144.6097  163.4193 C.ar    1  UNL1        0.1633
      5 C         141.3748  143.5960  163.6254 C.ar    1  UNL1        0.0986
      6 C         141.4377  142.8135  164.9036 C.ar    1  UNL1        0.0224
      7 N         142.2378  143.5855  162.3986 N.ar    1  UNL1       -0.2694
      8 C         141.6849  144.5927  161.4342 C.ar    1  UNL1        0.3331
      9 O         142.2394  144.9109  160.0773 O.2     1  UNL1       -0.2462
     10 N         140.4802  145.2257  162.0651 N.ar    1  UNL1       -0.2630
     11 C         139.6184  146.2881  161.4498 C.3     1  UNL1        0.1366
     12 C         140.8920  141.8037  171.0858 C.3     1  UNL1        0.0316
     13 C         140.6969  141.6918  169.6027 C.ar    1  UNL1       -0.0149
     14 C         140.4516  140.4243  168.8388 C.ar    1  UNL1        0.0312
     15 S         140.3160  140.7769  167.3872 S.2     1  UNL1       -0.0867
     16 C         140.4774  142.2622  167.2539 C.ar    1  UNL1        0.0307
     17 C         140.7128  142.8276  168.6231 C.ar    1  UNL1        0.0028
     18 C         143.4422  142.7198  162.1753 C.3     1  UNL1        0.1956
     19 C         143.4227  141.2825  162.6040 C.2     1  UNL1        0.2490
     20 O         142.2710  140.4011  162.2209 O.2     1  UNL1       -0.2728
     21 N         144.5548  140.7265  163.4159 N.am    1  UNL1       -0.2744
     22 C         144.5353  139.2892  163.8447 C.3     1  UNL1        0.1150
     23 C         145.7065  141.6078  163.7991 C.3     1  UNL1        0.1150
@<TRIPOS>BOND
     1    12    13    1
     2    13    14   ar
     3    14    15   ar
     4    15    16   ar
     5    16     1    1
     6     1     2   ar
     7     2     3   ar
     8     3     4   ar
     9     4     5   ar
    10     5     6   ar
    11     5     7   ar
    12     7    18    1
    13    18    19    1
    14    19    20    2
    15    19    21   am
    16    21    22    1
    17    21    23    1
    18     7     8   ar
    19     8     9    2
    20     8    10   ar
    21    10    11    1
    22    16    17   ar
    23    17    13   ar
    24     6     1   ar
    25    10     4   ar
@<TRIPOS>MOLECULE
*****
 23 25 0 0 0
SMALL
GASTEIGER

@<TRIPOS>ATOM
      1 C         140.4254  142.4444  165.3649 C.ar    1  UNL1        0.0267
      2 C         140.1086  142.5223  166.8290 C.ar    1  UNL1        0.1011
      3 N         140.7565  141.5683  167.7882 N.ar    1  UNL1       -0.2251
      4 C         141.7210  140.5364  167.2834 C.ar    1  UNL1        0.1633
      5 C         142.0378  140.4586  165.8193 C.ar    1  UNL1        0.0986
      6 C         141.3900  141.4126  164.8601 C.ar    1  UNL1        0.0224
      7 N         143.0210  139.3441  165.6164 N.ar    1  UNL1       -0.2694
      8 C         143.3120  138.7332  166.9551 C.ar    1  UNL1        0.3331
      9 O         144.2429  137.5866  167.2175 O.2     1  UNL1       -0.2462
     10 N         142.5085  139.4701  167.9854 N.ar    1  UNL1       -0.2630
     11 C         142.4950  139.1898  169.4589 C.3     1  UNL1        0.1366
     12 C         139.7159  146.2801  161.8060 C.3     1  UNL1        0.0316
     13 C         139.4514  145.1615  162.7698 C.ar    1  UNL1       -0.0149
     14 C         138.1097  144.5715  163.0891 C.ar    1  UNL1        0.0312
     15 S         138.3113  143.4819  164.1001 S.2     1  UNL1       -0.0867
     16 C         139.7775  143.3985  164.4056 C.ar    1  UNL1        0.0307
     17 C         140.4821  144.4365  163.5834 C.ar    1  UNL1        0.0028
     18 C         143.6099  138.9158  164.3051 C.3     1  UNL1        0.1956
     19 C         144.2330  139.9324  163.3949 C.2     1  UNL1        0.2490
     20 O         145.4964  140.6302  163.8032 O.2     1  UNL1       -0.2728
     21 N         143.5926  140.2511  162.0765 N.am    1  UNL1       -0.2744
     22 C         144.2157  141.2677  161.1663 C.3     1  UNL1        0.1150
     23 C         142.3292  139.5533  161.6681 C.3     1  UNL1        0.1150
@<TRIPOS>BOND
     1    12    13    1
     2    13    14   ar
     3    14    15   ar
     4    15    16   ar
     5    16     1    1
     6     1     2   ar
     7     2     3   ar
     8     3     4   ar
     9     4     5   ar
    10     5     6   ar
    11     5     7   ar
    12     7    18    1
    13    18    19    1
    14    19    20    2
    15    19    21   am
    16    21    22    1
    17    21    23    1
    18     7     8   ar
    19     8     9    2
    20     8    10   ar
    21    10    11    1
    22    16    17   ar
    23    17    13   ar
    24     6     1   ar
    25    10     4   ar
@<TRIPOS>MOLECULE
*****
 23 25 0 0 0
SMALL
GASTEIGER

@<TRIPOS>ATOM
      1 C         139.6089  140.2604  166.5844 C.ar    1  UNL1        0.0267
      2 C         139.0069  139.0643  165.9084 C.ar    1  UNL1        0.1011
      3 N         138.4647  139.1842  164.5150 N.ar    1  UNL1       -0.2251
      4 C         138.5244  140.5002  163.7976 C.ar    1  UNL1        0.1633
      5 C         139.1264  141.6962  164.4736 C.ar    1  UNL1        0.0986
      6 C         139.6687  141.5763  165.8670 C.ar    1  UNL1        0.0224
      7 N         139.0474  142.8542  163.5235 N.ar    1  UNL1       -0.2694
      8 C         138.3966  142.3739  162.2602 C.ar    1  UNL1        0.3331
      9 O         138.1180  143.2029  161.0416 O.2     1  UNL1       -0.2462
     10 N         138.0733  140.9190  162.4297 N.ar    1  UNL1       -0.2630
     11 C         137.4147  140.0376  161.4102 C.3     1  UNL1        0.1366
     12 C         142.9138  139.5769  170.6454 C.3     1  UNL1        0.0316
     13 C         141.6703  139.8263  169.8444 C.ar    1  UNL1       -0.0149
     14 C         140.3011  140.0858  170.3996 C.ar    1  UNL1        0.0312
     15 S         139.3624  140.2799  169.2460 S.2     1  UNL1       -0.0867
     16 C         140.1513  140.1405  167.9778 C.ar    1  UNL1        0.0307
     17 C         141.5776  139.8602  168.3477 C.ar    1  UNL1        0.0028
     18 C         139.5339  144.2479  163.7898 C.3     1  UNL1        0.1956
     19 C         140.7540  144.7638  163.0860 C.2     1  UNL1        0.2490
     20 O         140.6083  145.6526  161.8865 O.2     1  UNL1       -0.2728
     21 N         142.1197  144.3908  163.5817 N.am    1  UNL1       -0.2744
     22 C         143.3397  144.9067  162.8779 C.3     1  UNL1        0.1150
     23 C         142.2654  143.5020  164.7812 C.3     1  UNL1        0.1150
@<TRIPOS>BOND
     1    12    13    1
     2    13    14   ar
     3    14    15   ar
     4    15    16   ar
     5    16     1    1
     6     1     2   ar
     7     2     3   ar
     8     3     4   ar
     9     4     5   ar
    10     5     6   ar
    11     5     7   ar
    12     7    18    1
    13    18    19    1
    14    19    20    2
    15    19    21   am
    16    21    22    1
    17    21    23    1
    18     7     8   ar
    19     8     9    2
    20     8    10   ar
    21    10    11    1
    22    16    17   ar
    23    17    13   ar
    24     6     1   ar
    25    10     4   ar
