@<TRIPOS>MOLECULE
*****
 33 36 0 0 0
SMALL
GASTEIGER

@<TRIPOS>ATOM
      1 N         140.5419  141.6339  167.8137 N.ar    1  UNL1       -0.2399
      2 N         140.4687  141.8219  166.3273 N.ar    1  UNL1       -0.1681
      3 C         139.6197  140.7219  165.7622 C.ar    1  UNL1        0.1079
      4 C         139.1681  139.8542  166.8994 C.ar    1  UNL1        0.1031
      5 C         139.7380  140.4178  168.1672 C.ar    1  UNL1        0.1280
      6 N         139.5391  139.8627  169.5465 N.pl3   1  UNL1       -0.3427
      7 H         138.9912  139.0554  169.6779 H       1  UNL1        0.1437
      8 H         139.9564  140.3058  170.3203 H       1  UNL1        0.1437
      9 C         139.2816  140.5245  164.3142 C.ar    1  UNL1        0.0197
     10 C         137.9673  141.0093  163.7780 C.ar    1  UNL1        0.0031
     11 C         137.6293  140.8119  162.3300 C.ar    1  UNL1        0.0193
     12 C         138.6055  140.1295  161.4182 C.ar    1  UNL1        0.0844
     13 N         138.2674  139.9321  159.9702 N.ar    1  UNL1       -0.2117
     14 C         139.2437  139.2498  159.0584 C.ar    1  UNL1        0.2247
     15 C         140.5580  138.7649  159.5946 C.ar    1  UNL1        0.0577
     16 C         140.8960  138.9624  161.0426 C.ar    1  UNL1        0.0063
     17 C         139.9198  139.6447  161.9544 C.ar    1  UNL1        0.0180
     18 C         140.2578  139.8422  163.4024 C.ar    1  UNL1        0.0031
     19 O         138.9056  139.0523  157.6104 O.3     1  UNL1       -0.4640
     20 C         139.6081  137.9929  156.8139 C.3     1  UNL1        0.1678
     21 C         139.6292  137.0355  155.6594 C.3     1  UNL1        0.0473
     22 C         140.8037  137.1155  156.5890 C.3     1  UNL1        0.0473
     23 C         138.2992  138.6366  166.7882 C.2     1  UNL1        0.2470
     24 N         138.4775  137.6903  165.6382 N.am    1  UNL1       -0.3252
     25 O         137.2517  138.3653  167.8272 O.2     1  UNL1       -0.2702
     26 H         139.1650  137.8682  164.9563 H       1  UNL1        0.1453
     27 H         137.9072  136.8911  165.5653 H       1  UNL1        0.1453
     28 C         142.7764  142.3789  168.9101 C.3     1  UNL1        0.0265
     29 C         141.2879  142.5085  168.7773 C.3     1  UNL1        0.1091
     30 C         140.5454  143.5126  169.6083 C.3     1  UNL1        0.0561
     31 C         139.7890  143.0671  170.8246 C.3     1  UNL1        0.1392
     32 O         140.4295  142.1288  171.8041 O.3     1  UNL1       -0.3819
     33 H         140.5758  141.2689  171.3799 H       1  UNL1        0.2104
@<TRIPOS>BOND
     1    28    29    1
     2    29    30    1
     3    30    31    1
     4    31    32    1
     5    29     1    1
     6     1     2   ar
     7     2     3   ar
     8     3     9    1
     9     9    10   ar
    10    10    11   ar
    11    11    12   ar
    12    12    13   ar
    13    13    14   ar
    14    14    19    1
    15    19    20    1
    16    20    21    1
    17    21    22    1
    18    14    15   ar
    19    15    16   ar
    20    16    17   ar
    21    17    18   ar
    22     3     4   ar
    23     4    23    1
    24    23    24   am
    25    23    25    2
    26     4     5   ar
    27     5     6    1
    28     5     1   ar
    29    18     9   ar
    30    17    12   ar
    31    22    20    1
    32    32    33    1
    33    24    26    1
    34    24    27    1
    35     6     7    1
    36     6     8    1
@<TRIPOS>MOLECULE
*****
 33 36 0 0 0
SMALL
GASTEIGER

@<TRIPOS>ATOM
      1 N         140.6123  141.7305  167.8533 N.ar    1  UNL1       -0.2399
      2 N         140.4211  142.0347  166.3969 N.ar    1  UNL1       -0.1681
      3 C         139.5894  140.9384  165.7997 C.ar    1  UNL1        0.1079
      4 C         139.2667  139.9567  166.8869 C.ar    1  UNL1        0.1031
      5 C         139.8988  140.4462  168.1560 C.ar    1  UNL1        0.1280
      6 N         139.8297  139.7701  169.4933 N.pl3   1  UNL1       -0.3427
      7 H         139.3343  138.9251  169.5926 H       1  UNL1        0.1437
      8 H         140.2797  140.1713  170.2716 H       1  UNL1        0.1437
      9 C         139.1566  140.8411  164.3667 C.ar    1  UNL1        0.0197
     10 C         137.8226  141.3841  163.9477 C.ar    1  UNL1        0.0031
     11 C         137.3898  141.2867  162.5148 C.ar    1  UNL1        0.0193
     12 C         138.2910  140.6463  161.5010 C.ar    1  UNL1        0.0844
     13 N         137.8582  140.5489  160.0681 N.ar    1  UNL1       -0.2117
     14 C         138.7593  139.9086  159.0543 C.ar    1  UNL1        0.2247
     15 C         140.0933  139.3655  159.4734 C.ar    1  UNL1        0.0577
     16 C         140.5261  139.4629  160.9063 C.ar    1  UNL1        0.0063
     17 C         139.6250  140.1033  161.9201 C.ar    1  UNL1        0.0180
     18 C         140.0578  140.2007  163.3529 C.ar    1  UNL1        0.0031
     19 O         138.3265  139.8112  157.6214 O.3     1  UNL1       -0.4640
     20 C         137.5210  140.9160  157.0044 C.3     1  UNL1        0.1678
     21 C         136.3967  141.3656  156.1191 C.3     1  UNL1        0.0473
     22 C         137.2500  142.3799  156.8213 C.3     1  UNL1        0.0473
     23 C         138.4545  138.7052  166.7321 C.2     1  UNL1        0.2470
     24 N         137.3295  138.4189  167.6820 N.am    1  UNL1       -0.3252
     25 O         138.7673  137.7400  165.6273 O.2     1  UNL1       -0.2702
     26 H         137.1242  139.0523  168.4071 H       1  UNL1        0.1453
     27 H         136.7964  137.5974  167.5803 H       1  UNL1        0.1453
     28 C         142.8692  142.4066  168.9484 C.3     1  UNL1        0.0265
     29 C         141.3818  142.5641  168.8345 C.3     1  UNL1        0.1091
     30 C         140.6639  143.5553  169.7018 C.3     1  UNL1        0.0561
     31 C         139.7965  143.0766  170.8280 C.3     1  UNL1        0.1392
     32 O         140.3426  142.1099  171.8365 O.3     1  UNL1       -0.3819
     33 H         140.5293  141.2621  171.4037 H       1  UNL1        0.2104
@<TRIPOS>BOND
     1    28    29    1
     2    29    30    1
     3    30    31    1
     4    31    32    1
     5    29     1    1
     6     1     2   ar
     7     2     3   ar
     8     3     9    1
     9     9    10   ar
    10    10    11   ar
    11    11    12   ar
    12    12    13   ar
    13    13    14   ar
    14    14    19    1
    15    19    20    1
    16    20    21    1
    17    21    22    1
    18    14    15   ar
    19    15    16   ar
    20    16    17   ar
    21    17    18   ar
    22     3     4   ar
    23     4    23    1
    24    23    24   am
    25    23    25    2
    26     4     5   ar
    27     5     6    1
    28     5     1   ar
    29    18     9   ar
    30    17    12   ar
    31    22    20    1
    32    32    33    1
    33    24    26    1
    34    24    27    1
    35     6     7    1
    36     6     8    1
@<TRIPOS>MOLECULE
*****
 33 36 0 0 0
SMALL
GASTEIGER

@<TRIPOS>ATOM
      1 N         140.0570  140.3748  167.6005 N.ar    1  UNL1       -0.2399
      2 N         140.8724  141.2528  166.6981 N.ar    1  UNL1       -0.1681
      3 C         140.3299  141.1179  165.3062 C.ar    1  UNL1        0.1079
      4 C         139.1792  140.1566  165.3482 C.ar    1  UNL1        0.1031
      5 C         139.0106  139.6973  166.7662 C.ar    1  UNL1        0.1280
      6 N         137.9770  138.7302  167.2627 N.pl3   1  UNL1       -0.3427
      7 H         137.3294  138.3363  166.6344 H       1  UNL1        0.1437
      8 H         137.9461  138.4895  168.2168 H       1  UNL1        0.1437
      9 C         140.8473  141.8211  164.0863 C.ar    1  UNL1        0.0197
     10 C         142.1615  141.4156  163.4877 C.ar    1  UNL1        0.0031
     11 C         142.6788  142.1188  162.2679 C.ar    1  UNL1        0.0193
     12 C         141.8819  143.2273  161.6466 C.ar    1  UNL1        0.0844
     13 N         142.3992  143.9304  160.4268 N.ar    1  UNL1       -0.2117
     14 C         141.6023  145.0389  159.8055 C.ar    1  UNL1        0.2247
     15 C         140.2879  145.4443  160.4041 C.ar    1  UNL1        0.0577
     16 C         139.7706  144.7412  161.6239 C.ar    1  UNL1        0.0063
     17 C         140.5676  143.6327  162.2452 C.ar    1  UNL1        0.0180
     18 C         140.0503  142.9296  163.4650 C.ar    1  UNL1        0.0031
     19 O         142.1195  145.7420  158.5856 O.3     1  UNL1       -0.4640
     20 C         141.2189  145.9574  157.4056 C.3     1  UNL1        0.1678
     21 C         139.9109  146.4226  156.8375 C.3     1  UNL1        0.0473
     22 C         140.9670  145.8653  155.9298 C.3     1  UNL1        0.0473
     23 C         138.3439  139.7295  164.1779 C.2     1  UNL1        0.2470
     24 N         137.2636  140.6312  163.6586 N.am    1  UNL1       -0.3252
     25 O         138.5889  138.4005  163.5268 O.2     1  UNL1       -0.2702
     26 H         137.1027  141.5034  164.0859 H       1  UNL1        0.1453
     27 H         136.7153  140.3508  162.8904 H       1  UNL1        0.1453
     28 C         139.1646  140.6008  170.0300 C.3     1  UNL1        0.0265
     29 C         140.2536  140.2042  169.0777 C.3     1  UNL1        0.1091
     30 C         141.5392  139.6370  169.6027 C.3     1  UNL1        0.0561
     31 C         142.4405  140.4831  170.4522 C.3     1  UNL1        0.1392
     32 O         142.1651  140.6333  171.9191 O.3     1  UNL1       -0.3819
     33 H         141.3297  141.1101  172.0440 H       1  UNL1        0.2104
@<TRIPOS>BOND
     1    28    29    1
     2    29    30    1
     3    30    31    1
     4    31    32    1
     5    29     1    1
     6     1     2   ar
     7     2     3   ar
     8     3     9    1
     9     9    10   ar
    10    10    11   ar
    11    11    12   ar
    12    12    13   ar
    13    13    14   ar
    14    14    19    1
    15    19    20    1
    16    20    21    1
    17    21    22    1
    18    14    15   ar
    19    15    16   ar
    20    16    17   ar
    21    17    18   ar
    22     3     4   ar
    23     4    23    1
    24    23    24   am
    25    23    25    2
    26     4     5   ar
    27     5     6    1
    28     5     1   ar
    29    18     9   ar
    30    17    12   ar
    31    22    20    1
    32    32    33    1
    33    24    26    1
    34    24    27    1
    35     6     7    1
    36     6     8    1
@<TRIPOS>MOLECULE
*****
 33 36 0 0 0
SMALL
GASTEIGER

@<TRIPOS>ATOM
      1 N         140.7077  141.5182  168.1837 N.ar    1  UNL1       -0.2399
      2 N         141.3160  141.6319  166.8174 N.ar    1  UNL1       -0.1681
      3 C         140.6610  140.6135  165.9321 C.ar    1  UNL1        0.1079
      4 C         139.6478  139.8703  166.7513 C.ar    1  UNL1        0.1031
      5 C         139.6766  140.4294  168.1429 C.ar    1  UNL1        0.1280
      6 N         138.8241  139.9789  169.2920 N.pl3   1  UNL1       -0.3427
      7 H         138.1721  139.2522  169.1658 H       1  UNL1        0.1437
      8 H         138.9167  140.4100  170.1722 H       1  UNL1        0.1437
      9 C         140.9656  140.3793  164.4821 C.ar    1  UNL1        0.0197
     10 C         140.0516  140.9260  163.4259 C.ar    1  UNL1        0.0031
     11 C         140.3563  140.6918  161.9760 C.ar    1  UNL1        0.0193
     12 C         141.5750  139.9111  161.5823 C.ar    1  UNL1        0.0844
     13 N         141.8797  139.6769  160.1323 N.ar    1  UNL1       -0.2117
     14 C         143.0985  138.8962  159.7386 C.ar    1  UNL1        0.2247
     15 C         144.0126  138.3495  160.7949 C.ar    1  UNL1        0.0577
     16 C         143.7079  138.5837  162.2448 C.ar    1  UNL1        0.0063
     17 C         142.4891  139.3644  162.6385 C.ar    1  UNL1        0.0180
     18 C         142.1844  139.5986  164.0884 C.ar    1  UNL1        0.0031
     19 O         143.4032  138.6620  158.2886 O.3     1  UNL1       -0.4640
     20 C         142.6773  137.5881  157.5336 C.3     1  UNL1        0.1678
     21 C         141.4371  137.0912  156.8517 C.3     1  UNL1        0.0473
     22 C         142.6604  136.2251  156.9077 C.3     1  UNL1        0.0473
     23 C         138.7614  138.7625  166.2645 C.2     1  UNL1        0.2470
     24 N         139.2551  137.8141  165.2125 N.am    1  UNL1       -0.3252
     25 O         137.3810  138.6032  166.8297 O.2     1  UNL1       -0.2702
     26 H         140.1610  137.9187  164.8415 H       1  UNL1        0.1453
     27 H         138.6732  137.0871  164.8930 H       1  UNL1        0.1453
     28 C         140.3661  143.6502  169.6287 C.3     1  UNL1        0.0265
     29 C         141.0673  142.3476  169.3808 C.3     1  UNL1        0.1091
     30 C         142.1280  141.8743  170.3298 C.3     1  UNL1        0.0561
     31 C         141.8817  140.6703  171.1900 C.3     1  UNL1        0.1392
     32 O         140.5756  140.5189  171.9119 O.3     1  UNL1       -0.3819
     33 H         140.4934  141.2162  172.5812 H       1  UNL1        0.2104
@<TRIPOS>BOND
     1    28    29    1
     2    29    30    1
     3    30    31    1
     4    31    32    1
     5    29     1    1
     6     1     2   ar
     7     2     3   ar
     8     3     9    1
     9     9    10   ar
    10    10    11   ar
    11    11    12   ar
    12    12    13   ar
    13    13    14   ar
    14    14    19    1
    15    19    20    1
    16    20    21    1
    17    21    22    1
    18    14    15   ar
    19    15    16   ar
    20    16    17   ar
    21    17    18   ar
    22     3     4   ar
    23     4    23    1
    24    23    24   am
    25    23    25    2
    26     4     5   ar
    27     5     6    1
    28     5     1   ar
    29    18     9   ar
    30    17    12   ar
    31    22    20    1
    32    32    33    1
    33    24    26    1
    34    24    27    1
    35     6     7    1
    36     6     8    1
@<TRIPOS>MOLECULE
*****
 33 36 0 0 0
SMALL
GASTEIGER

@<TRIPOS>ATOM
      1 N         140.4462  142.0836  168.0930 N.ar    1  UNL1       -0.2399
      2 N         140.3833  142.8076  166.7808 N.ar    1  UNL1       -0.1681
      3 C         139.6916  141.9163  165.7923 C.ar    1  UNL1        0.1079
      4 C         139.3269  140.6415  166.4935 C.ar    1  UNL1        0.1031
      5 C         139.7933  140.7448  167.9154 C.ar    1  UNL1        0.1280
      6 N         139.6346  139.6939  168.9739 N.pl3   1  UNL1       -0.3427
      7 H         139.1894  138.8424  168.7594 H       1  UNL1        0.1437
      8 H         139.9758  139.8556  169.8832 H       1  UNL1        0.1437
      9 C         139.4133  142.2427  164.3549 C.ar    1  UNL1        0.0197
     10 C         138.0205  142.5916  163.9210 C.ar    1  UNL1        0.0031
     11 C         137.7424  142.9180  162.4836 C.ar    1  UNL1        0.0193
     12 C         138.8570  142.8954  161.4801 C.ar    1  UNL1        0.0844
     13 N         138.5788  143.2218  160.0427 N.ar    1  UNL1       -0.2117
     14 C         139.6934  143.1992  159.0392 C.ar    1  UNL1        0.2247
     15 C         141.0863  142.8503  159.4731 C.ar    1  UNL1        0.0577
     16 C         141.3645  142.5240  160.9105 C.ar    1  UNL1        0.0063
     17 C         140.2498  142.5465  161.9140 C.ar    1  UNL1        0.0180
     18 C         140.5280  142.2202  163.3513 C.ar    1  UNL1        0.0031
     19 O         139.4153  143.5256  157.6018 O.3     1  UNL1       -0.4640
     20 C         139.9653  144.7839  156.9984 C.3     1  UNL1        0.1678
     21 C         140.8377  145.4660  155.9866 C.3     1  UNL1        0.0473
     22 C         140.0456  146.2814  156.9650 C.3     1  UNL1        0.0473
     23 C         138.6201  139.4691  165.8805 C.2     1  UNL1        0.2470
     24 N         139.0251  138.9747  164.5235 N.am    1  UNL1       -0.3252
     25 O         137.5080  138.7910  166.6246 O.2     1  UNL1       -0.2702
     26 H         139.7550  139.4197  164.0351 H       1  UNL1        0.1453
     27 H         138.5611  138.2052  164.1212 H       1  UNL1        0.1453
     28 C         140.5286  143.8664  169.9810 C.3     1  UNL1        0.0265
     29 C         141.0550  142.6065  169.3602 C.3     1  UNL1        0.1091
     30 C         142.1902  141.8693  170.0067 C.3     1  UNL1        0.0561
     31 C         141.9906  141.1996  171.3339 C.3     1  UNL1        0.1392
     32 O         140.6296  140.7077  171.7285 O.3     1  UNL1       -0.3819
     33 H         140.0313  141.4636  171.8364 H       1  UNL1        0.2104
@<TRIPOS>BOND
     1    28    29    1
     2    29    30    1
     3    30    31    1
     4    31    32    1
     5    29     1    1
     6     1     2   ar
     7     2     3   ar
     8     3     9    1
     9     9    10   ar
    10    10    11   ar
    11    11    12   ar
    12    12    13   ar
    13    13    14   ar
    14    14    19    1
    15    19    20    1
    16    20    21    1
    17    21    22    1
    18    14    15   ar
    19    15    16   ar
    20    16    17   ar
    21    17    18   ar
    22     3     4   ar
    23     4    23    1
    24    23    24   am
    25    23    25    2
    26     4     5   ar
    27     5     6    1
    28     5     1   ar
    29    18     9   ar
    30    17    12   ar
    31    22    20    1
    32    32    33    1
    33    24    26    1
    34    24    27    1
    35     6     7    1
    36     6     8    1
@<TRIPOS>MOLECULE
*****
 33 36 0 0 0
SMALL
GASTEIGER

@<TRIPOS>ATOM
      1 N         141.1518  140.3054  168.8299 N.ar    1  UNL1       -0.2399
      2 N         141.8891  139.9555  167.5713 N.ar    1  UNL1       -0.1681
      3 C         140.8886  139.4555  166.5718 C.ar    1  UNL1        0.1079
      4 C         139.5330  139.4964  167.2126 C.ar    1  UNL1        0.1031
      5 C         139.6956  140.0217  168.6082 C.ar    1  UNL1        0.1280
      6 N         138.5953  140.2271  169.6068 N.pl3   1  UNL1       -0.3427
      7 H         137.6656  140.0104  169.3663 H       1  UNL1        0.1437
      8 H         138.8029  140.5787  170.5026 H       1  UNL1        0.1437
      9 C         141.1907  138.9954  165.1764 C.ar    1  UNL1        0.0197
     10 C         140.7968  137.6155  164.7398 C.ar    1  UNL1        0.0031
     11 C         141.0989  137.1555  163.3445 C.ar    1  UNL1        0.0193
     12 C         141.7949  138.0754  162.3857 C.ar    1  UNL1        0.0844
     13 N         142.0970  137.6153  160.9902 N.ar    1  UNL1       -0.2117
     14 C         142.7930  138.5352  160.0314 C.ar    1  UNL1        0.2247
     15 C         143.1869  139.9152  160.4680 C.ar    1  UNL1        0.0577
     16 C         142.8848  140.3752  161.8634 C.ar    1  UNL1        0.0063
     17 C         142.1888  139.4553  162.8222 C.ar    1  UNL1        0.0180
     18 C         141.8867  139.9153  164.2175 C.ar    1  UNL1        0.0031
     19 O         143.0952  138.0752  158.6361 O.3     1  UNL1       -0.4640
     20 C         141.9756  137.6968  157.7121 C.3     1  UNL1        0.1678
     21 C         141.4585  136.8837  156.5626 C.3     1  UNL1        0.0473
     22 C         140.5537  137.8547  157.2614 C.3     1  UNL1        0.0473
     23 C         138.2414  139.0845  166.5706 C.2     1  UNL1        0.2470
     24 N         137.8371  139.6751  165.2525 N.am    1  UNL1       -0.3252
     25 O         137.3542  138.0817  167.2469 O.2     1  UNL1       -0.2702
     26 H         138.4194  140.3333  164.8086 H       1  UNL1        0.1453
     27 H         136.9894  139.4047  164.8312 H       1  UNL1        0.1453
     28 C         142.9010  140.1164  170.7417 C.3     1  UNL1        0.0265
     29 C         141.7633  140.8444  170.0891 C.3     1  UNL1        0.1091
     30 C         141.2372  142.1113  170.6957 C.3     1  UNL1        0.0561
     31 C         141.1314  143.3542  169.8626 C.3     1  UNL1        0.1392
     32 O         140.1678  144.4367  170.2495 O.3     1  UNL1       -0.3819
     33 H         139.2597  144.1066  170.1647 H       1  UNL1        0.2104
@<TRIPOS>BOND
     1    28    29    1
     2    29    30    1
     3    30    31    1
     4    31    32    1
     5    29     1    1
     6     1     2   ar
     7     2     3   ar
     8     3     9    1
     9     9    10   ar
    10    10    11   ar
    11    11    12   ar
    12    12    13   ar
    13    13    14   ar
    14    14    19    1
    15    19    20    1
    16    20    21    1
    17    21    22    1
    18    14    15   ar
    19    15    16   ar
    20    16    17   ar
    21    17    18   ar
    22     3     4   ar
    23     4    23    1
    24    23    24   am
    25    23    25    2
    26     4     5   ar
    27     5     6    1
    28     5     1   ar
    29    18     9   ar
    30    17    12   ar
    31    22    20    1
    32    32    33    1
    33    24    26    1
    34    24    27    1
    35     6     7    1
    36     6     8    1
@<TRIPOS>MOLECULE
*****
 33 36 0 0 0
SMALL
GASTEIGER

@<TRIPOS>ATOM
      1 N         139.8879  140.9944  167.3280 N.ar    1  UNL1       -0.2399
      2 N         140.2332  142.1655  166.4566 N.ar    1  UNL1       -0.1681
      3 C         139.6008  141.9468  165.1141 C.ar    1  UNL1        0.1079
      4 C         138.8646  140.6406  165.1558 C.ar    1  UNL1        0.1031
      5 C         139.0420  140.0519  166.5240 C.ar    1  UNL1        0.1280
      6 N         138.4734  138.7495  167.0040 N.pl3   1  UNL1       -0.3427
      7 H         137.9274  138.1978  166.3984 H       1  UNL1        0.1437
      8 H         138.6463  138.4464  167.9246 H       1  UNL1        0.1437
      9 C         139.6891  142.8720  163.9367 C.ar    1  UNL1        0.0197
     10 C         138.9421  144.1727  163.9472 C.ar    1  UNL1        0.0031
     11 C         139.0304  145.0978  162.7698 C.ar    1  UNL1        0.0193
     12 C         139.8657  144.7222  161.5819 C.ar    1  UNL1        0.0844
     13 N         139.9541  145.6474  160.4044 N.ar    1  UNL1       -0.2117
     14 C         140.7894  145.2718  159.2165 C.ar    1  UNL1        0.2247
     15 C         141.5364  143.9711  159.2060 C.ar    1  UNL1        0.0577
     16 C         141.4481  143.0460  160.3834 C.ar    1  UNL1        0.0063
     17 C         140.6128  143.4215  161.5713 C.ar    1  UNL1        0.0180
     18 C         140.5244  142.4964  162.7487 C.ar    1  UNL1        0.0031
     19 O         140.8777  146.1970  158.0391 O.3     1  UNL1       -0.4640
     20 C         141.2394  145.6576  156.6869 C.3     1  UNL1        0.1678
     21 C         140.8341  145.2363  155.3055 C.3     1  UNL1        0.0473
     22 C         142.2709  145.1447  155.7263 C.3     1  UNL1        0.0473
     23 C         138.0875  140.0301  164.0273 C.2     1  UNL1        0.2470
     24 N         137.0322  140.8309  163.3238 N.am    1  UNL1       -0.3252
     25 O         138.3657  138.6186  163.6025 O.2     1  UNL1       -0.2702
     26 H         136.8496  141.7573  163.6027 H       1  UNL1        0.1453
     27 H         136.5222  140.4301  162.5832 H       1  UNL1        0.1453
     28 C         141.5548  140.0175  169.0649 C.3     1  UNL1        0.0265
     29 C         140.3136  140.7999  168.7531 C.3     1  UNL1        0.1091
     30 C         139.4982  141.3879  169.8663 C.3     1  UNL1        0.0561
     31 C         140.0603  142.5000  170.7012 C.3     1  UNL1        0.1392
     32 O         140.5449  142.2216  172.0932 O.3     1  UNL1       -0.3819
     33 H         139.7947  141.9631  172.6511 H       1  UNL1        0.2104
@<TRIPOS>BOND
     1    28    29    1
     2    29    30    1
     3    30    31    1
     4    31    32    1
     5    29     1    1
     6     1     2   ar
     7     2     3   ar
     8     3     9    1
     9     9    10   ar
    10    10    11   ar
    11    11    12   ar
    12    12    13   ar
    13    13    14   ar
    14    14    19    1
    15    19    20    1
    16    20    21    1
    17    21    22    1
    18    14    15   ar
    19    15    16   ar
    20    16    17   ar
    21    17    18   ar
    22     3     4   ar
    23     4    23    1
    24    23    24   am
    25    23    25    2
    26     4     5   ar
    27     5     6    1
    28     5     1   ar
    29    18     9   ar
    30    17    12   ar
    31    22    20    1
    32    32    33    1
    33    24    26    1
    34    24    27    1
    35     6     7    1
    36     6     8    1
@<TRIPOS>MOLECULE
*****
 33 36 0 0 0
SMALL
GASTEIGER

@<TRIPOS>ATOM
      1 N         140.4665  140.3593  168.2462 N.ar    1  UNL1       -0.2399
      2 N         139.7306  140.2006  166.9488 N.ar    1  UNL1       -0.1681
      3 C         140.6692  139.5807  165.9563 C.ar    1  UNL1        0.1079
      4 C         141.9851  139.3563  166.6403 C.ar    1  UNL1        0.1031
      5 C         141.8599  139.8375  168.0555 C.ar    1  UNL1        0.1280
      6 N         142.9387  139.8029  169.0972 N.pl3   1  UNL1       -0.3427
      7 H         143.8261  139.4393  168.8750 H       1  UNL1        0.1437
      8 H         142.7592  140.1439  170.0032 H       1  UNL1        0.1437
      9 C         140.3481  139.2443  164.5302 C.ar    1  UNL1        0.0197
     10 C         140.1146  137.8176  164.1304 C.ar    1  UNL1        0.0031
     11 C         139.7935  137.4812  162.7043 C.ar    1  UNL1        0.0193
     12 C         139.7059  138.5716  161.6780 C.ar    1  UNL1        0.0844
     13 N         139.3848  138.2352  160.2519 N.ar    1  UNL1       -0.2117
     14 C         139.2972  139.3257  159.2256 C.ar    1  UNL1        0.2247
     15 C         139.5307  140.7525  159.6254 C.ar    1  UNL1        0.0577
     16 C         139.8518  141.0888  161.0515 C.ar    1  UNL1        0.0063
     17 C         139.9394  139.9984  162.0778 C.ar    1  UNL1        0.0180
     18 C         140.2605  140.3347  163.5039 C.ar    1  UNL1        0.0031
     19 O         138.9761  138.9893  157.7995 O.3     1  UNL1       -0.4640
     20 C         140.0085  138.3302  156.9336 C.3     1  UNL1        0.1678
     21 C         141.0064  138.4048  155.8162 C.3     1  UNL1        0.0473
     22 C         140.7987  137.1139  156.5513 C.3     1  UNL1        0.0473
     23 C         143.2111  138.7561  166.0184 C.2     1  UNL1        0.2470
     24 N         143.5525  139.0594  164.5897 N.am    1  UNL1       -0.3252
     25 O         144.0957  137.8526  166.8254 O.2     1  UNL1       -0.2702
     26 H         142.9719  139.6524  164.0600 H       1  UNL1        0.1453
     27 H         144.3571  138.6654  164.1815 H       1  UNL1        0.1453
     28 C         138.6828  140.3362  170.1350 C.3     1  UNL1        0.0265
     29 C         139.9073  140.9381  169.5119 C.3     1  UNL1        0.1091
     30 C         140.5726  142.1189  170.1546 C.3     1  UNL1        0.0561
     31 C         141.2360  141.9701  171.4917 C.3     1  UNL1        0.1392
     32 O         142.0687  140.7574  171.7849 O.3     1  UNL1       -0.3819
     33 H         141.5013  139.9707  171.7967 H       1  UNL1        0.2104
@<TRIPOS>BOND
     1    28    29    1
     2    29    30    1
     3    30    31    1
     4    31    32    1
     5    29     1    1
     6     1     2   ar
     7     2     3   ar
     8     3     9    1
     9     9    10   ar
    10    10    11   ar
    11    11    12   ar
    12    12    13   ar
    13    13    14   ar
    14    14    19    1
    15    19    20    1
    16    20    21    1
    17    21    22    1
    18    14    15   ar
    19    15    16   ar
    20    16    17   ar
    21    17    18   ar
    22     3     4   ar
    23     4    23    1
    24    23    24   am
    25    23    25    2
    26     4     5   ar
    27     5     6    1
    28     5     1   ar
    29    18     9   ar
    30    17    12   ar
    31    22    20    1
    32    32    33    1
    33    24    26    1
    34    24    27    1
    35     6     7    1
    36     6     8    1
@<TRIPOS>MOLECULE
*****
 33 36 0 0 0
SMALL
GASTEIGER

@<TRIPOS>ATOM
      1 N         142.7030  141.6756  166.1581 N.ar    1  UNL1       -0.2399
      2 N         142.2820  140.6239  165.1749 N.ar    1  UNL1       -0.1681
      3 C         143.1070  140.7931  163.9336 C.ar    1  UNL1        0.1079
      4 C         144.0378  141.9493  164.1496 C.ar    1  UNL1        0.1031
      5 C         143.7881  142.4948  165.5244 C.ar    1  UNL1        0.1280
      6 N         144.4988  143.6556  166.1549 N.pl3   1  UNL1       -0.3427
      7 H         145.2009  144.1327  165.6563 H       1  UNL1        0.1437
      8 H         144.2631  143.9404  167.0674 H       1  UNL1        0.1437
      9 C         143.0169  139.9534  162.6939 C.ar    1  UNL1        0.0197
     10 C         143.9427  138.7878  162.5086 C.ar    1  UNL1        0.0031
     11 C         143.8526  137.9482  161.2689 C.ar    1  UNL1        0.0193
     12 C         142.8367  138.2741  160.2145 C.ar    1  UNL1        0.0844
     13 N         142.7466  137.4344  158.9748 N.ar    1  UNL1       -0.2117
     14 C         141.7307  137.7603  157.9204 C.ar    1  UNL1        0.2247
     15 C         140.8049  138.9259  158.1057 C.ar    1  UNL1        0.0577
     16 C         140.8950  139.7655  159.3454 C.ar    1  UNL1        0.0063
     17 C         141.9109  139.4396  160.3998 C.ar    1  UNL1        0.0180
     18 C         142.0010  140.2793  161.6395 C.ar    1  UNL1        0.0031
     19 O         141.6406  136.9206  156.6807 O.3     1  UNL1       -0.4640
     20 C         142.8184  136.1015  156.2424 C.3     1  UNL1        0.1678
     21 C         143.5609  134.7982  156.2275 C.3     1  UNL1        0.0473
     22 C         144.1156  135.9859  155.4983 C.3     1  UNL1        0.0473
     23 C         145.0419  142.4690  163.1639 C.2     1  UNL1        0.2470
     24 N         144.7569  143.7241  162.3938 N.am    1  UNL1       -0.3252
     25 O         146.3313  141.7333  162.9484 O.2     1  UNL1       -0.2702
     26 H         143.9106  144.2070  162.5352 H       1  UNL1        0.1453
     27 H         145.4160  144.0651  161.7468 H       1  UNL1        0.1453
     28 C         140.7738  142.4731  167.7049 C.3     1  UNL1        0.0265
     29 C         142.1380  141.8734  167.5335 C.3     1  UNL1        0.1091
     30 C         142.9373  141.4715  168.7375 C.3     1  UNL1        0.0561
     31 C         143.2826  142.4904  169.7828 C.3     1  UNL1        0.1392
     32 O         144.7187  142.7605  170.1212 O.3     1  UNL1       -0.3819
     33 H         145.1089  141.9714  170.5286 H       1  UNL1        0.2104
@<TRIPOS>BOND
     1    28    29    1
     2    29    30    1
     3    30    31    1
     4    31    32    1
     5    29     1    1
     6     1     2   ar
     7     2     3   ar
     8     3     9    1
     9     9    10   ar
    10    10    11   ar
    11    11    12   ar
    12    12    13   ar
    13    13    14   ar
    14    14    19    1
    15    19    20    1
    16    20    21    1
    17    21    22    1
    18    14    15   ar
    19    15    16   ar
    20    16    17   ar
    21    17    18   ar
    22     3     4   ar
    23     4    23    1
    24    23    24   am
    25    23    25    2
    26     4     5   ar
    27     5     6    1
    28     5     1   ar
    29    18     9   ar
    30    17    12   ar
    31    22    20    1
    32    32    33    1
    33    24    26    1
    34    24    27    1
    35     6     7    1
    36     6     8    1
