@<TRIPOS>MOLECULE
*****
 36 39 0 0 0
SMALL
GASTEIGER

@<TRIPOS>ATOM
      1 O         138.3713  138.0839  162.2550 O.2     1  UNL1       -0.2224
      2 C         138.4947  138.9505  163.4732 C.2     1  UNL1        0.4453
      3 N         139.6443  138.7577  164.4174 N.am    1  UNL1       -0.0488
      4 S         139.7677  139.6242  165.6355 S.O2    1  UNL1        0.0964
      5 O         140.6304  140.5811  164.8674 O.2     1  UNL1       -0.1482
      6 O         138.9049  138.6673  166.4037 O.2     1  UNL1       -0.1482
      7 C         139.8911  140.4908  166.8537 C.ar    1  UNL1        0.1272
      8 C         140.4561  141.8752  166.7351 C.ar    1  UNL1        0.0211
      9 C         140.5795  142.7418  167.9532 C.ar    1  UNL1        0.0128
     10 C         140.1380  142.2239  169.2899 C.ar    1  UNL1        0.0578
     11 CL        140.2614  143.0905  170.5081 Cl      1  UNL1       -0.0822
     12 C         139.5729  140.8394  169.4086 C.ar    1  UNL1        0.0128
     13 C         139.4495  139.9728  168.1904 C.ar    1  UNL1        0.0211
     14 N         140.6703  137.6983  164.1435 N.pl3   1  UNL1       -0.2381
     15 H         140.5978  136.8185  164.5792 H       1  UNL1        0.1721
     16 C         141.8067  137.9796  163.2057 C.ar    1  UNL1        0.0631
     17 C         143.0643  138.6148  163.7205 C.ar    1  UNL1        0.0159
     18 C         144.2007  138.8960  162.7827 C.ar    1  UNL1        0.0013
     19 C         144.0795  138.5421  161.3301 C.ar    1  UNL1        0.0001
     20 C         142.8219  137.9069  160.8153 C.ar    1  UNL1        0.0013
     21 C         141.6855  137.6256  161.7531 C.ar    1  UNL1        0.0159
     22 O         137.4687  140.0098  163.7471 O.3     1  UNL1       -0.4080
     23 C         137.7283  141.4292  163.3372 C.ar    1  UNL1        0.1503
     24 C         138.0445  141.7509  161.9067 C.ar    1  UNL1        0.0408
     25 C         138.3040  143.1703  161.4969 C.ar    1  UNL1        0.0400
     26 C         138.2474  144.2679  162.5176 C.ar    1  UNL1        0.1393
     27 C         137.9312  143.9463  163.9481 C.ar    1  UNL1        0.0400
     28 C         137.6717  142.5269  164.3579 C.ar    1  UNL1        0.0408
     29 O         138.5070  145.6874  162.1077 O.3     1  UNL1       -0.4706
     30 C         139.9161  146.1767  161.9499 C.3     1  UNL1        0.2320
     31 C         141.0651  145.2876  162.3233 C.ar    1  UNL1        0.0212
     32 C         141.7910  144.5148  161.2622 C.ar    1  UNL1       -0.0007
     33 C         142.9399  143.6257  161.6356 C.ar    1  UNL1       -0.0002
     34 C         143.3629  143.5094  163.0700 C.ar    1  UNL1       -0.0000
     35 C         142.6370  144.2821  164.1310 C.ar    1  UNL1       -0.0002
     36 C         141.4881  145.1712  163.7577 C.ar    1  UNL1       -0.0007
@<TRIPOS>BOND
     1     1     2    2
     2     2    22    1
     3    22    23    1
     4    23    24   ar
     5    24    25   ar
     6    25    26   ar
     7    26    29    1
     8    29    30    1
     9    30    31    1
    10    31    32   ar
    11    32    33   ar
    12    33    34   ar
    13    34    35   ar
    14    35    36   ar
    15    26    27   ar
    16    27    28   ar
    17     2     3   am
    18     3    14    1
    19    14    16    1
    20    16    17   ar
    21    17    18   ar
    22    18    19   ar
    23    19    20   ar
    24    20    21   ar
    25     3     4    1
    26     4     5    2
    27     4     6    2
    28     4     7    1
    29     7     8   ar
    30     8     9   ar
    31     9    10   ar
    32    10    11    1
    33    10    12   ar
    34    12    13   ar
    35    28    23   ar
    36    21    16   ar
    37    13     7   ar
    38    36    31   ar
    39    14    15    1
@<TRIPOS>MOLECULE
*****
 36 39 0 0 0
SMALL
GASTEIGER

@<TRIPOS>ATOM
      1 O         144.1378  137.6464  166.9931 O.2     1  UNL1       -0.2224
      2 C         143.6126  138.7904  166.1773 C.2     1  UNL1        0.4453
      3 N         142.9383  139.9468  166.8541 N.am    1  UNL1       -0.0488
      4 S         142.4131  141.0908  166.0383 S.O2    1  UNL1        0.0964
      5 O         141.0557  140.4529  166.0174 O.2     1  UNL1       -0.1482
      6 O         143.7705  141.7288  166.0592 O.2     1  UNL1       -0.1482
      7 C         141.8880  142.2349  165.2225 C.ar    1  UNL1        0.1272
      8 C         142.5293  142.5770  163.9105 C.ar    1  UNL1        0.0211
      9 C         142.0042  143.7210  163.0947 C.ar    1  UNL1        0.0128
     10 C         140.8378  144.5229  163.5910 C.ar    1  UNL1        0.0578
     11 CL        140.3126  145.6669  162.7752 Cl      1  UNL1       -0.0822
     12 C         140.1964  144.1807  164.9031 C.ar    1  UNL1        0.0128
     13 C         140.7215  143.0367  165.7189 C.ar    1  UNL1        0.0211
     14 N         142.7890  139.9592  168.3466 N.pl3   1  UNL1       -0.2381
     15 H         143.3033  139.3263  168.8980 H       1  UNL1        0.1721
     16 C         141.8562  140.9360  168.9989 C.ar    1  UNL1        0.0631
     17 C         142.3073  142.3420  169.2634 C.ar    1  UNL1        0.0159
     18 C         141.3745  143.3188  169.9158 C.ar    1  UNL1        0.0013
     19 C         139.9905  142.8897  170.3036 C.ar    1  UNL1        0.0001
     20 C         139.5393  141.4839  170.0391 C.ar    1  UNL1        0.0013
     21 C         140.4722  140.5070  169.3867 C.ar    1  UNL1        0.0159
     22 O         143.7619  138.7780  164.6848 O.3     1  UNL1       -0.4080
     23 C         142.5652  138.5356  163.8134 C.ar    1  UNL1        0.1503
     24 C         142.4470  139.2331  162.4907 C.ar    1  UNL1        0.0408
     25 C         141.2504  138.9907  161.6193 C.ar    1  UNL1        0.0400
     26 C         140.1720  138.0508  162.0707 C.ar    1  UNL1        0.1393
     27 C         140.2901  137.3534  163.3934 C.ar    1  UNL1        0.0400
     28 C         141.4868  137.5958  164.2648 C.ar    1  UNL1        0.0408
     29 O         138.9753  137.8085  161.1993 O.3     1  UNL1       -0.4706
     30 C         137.7200  138.6017  161.4114 C.3     1  UNL1        0.2320
     31 C         137.8004  140.0751  161.6808 C.ar    1  UNL1        0.0212
     32 C         138.1924  141.0182  160.5822 C.ar    1  UNL1       -0.0007
     33 C         138.2728  142.4915  160.8517 C.ar    1  UNL1       -0.0002
     34 C         137.9611  143.0219  162.2197 C.ar    1  UNL1       -0.0000
     35 C         137.5691  142.0789  163.3183 C.ar    1  UNL1       -0.0002
     36 C         137.4887  140.6055  163.0489 C.ar    1  UNL1       -0.0007
@<TRIPOS>BOND
     1     1     2    2
     2     2    22    1
     3    22    23    1
     4    23    24   ar
     5    24    25   ar
     6    25    26   ar
     7    26    29    1
     8    29    30    1
     9    30    31    1
    10    31    32   ar
    11    32    33   ar
    12    33    34   ar
    13    34    35   ar
    14    35    36   ar
    15    26    27   ar
    16    27    28   ar
    17     2     3   am
    18     3    14    1
    19    14    16    1
    20    16    17   ar
    21    17    18   ar
    22    18    19   ar
    23    19    20   ar
    24    20    21   ar
    25     3     4    1
    26     4     5    2
    27     4     6    2
    28     4     7    1
    29     7     8   ar
    30     8     9   ar
    31     9    10   ar
    32    10    11    1
    33    10    12   ar
    34    12    13   ar
    35    28    23   ar
    36    21    16   ar
    37    13     7   ar
    38    36    31   ar
    39    14    15    1
@<TRIPOS>MOLECULE
*****
 36 39 0 0 0
SMALL
GASTEIGER

@<TRIPOS>ATOM
      1 O         137.3511  138.6550  166.8133 O.2     1  UNL1       -0.2224
      2 C         138.6040  139.0601  166.0950 C.2     1  UNL1        0.4453
      3 N         139.7002  139.7644  166.8383 N.am    1  UNL1       -0.0488
      4 S         140.9532  140.1696  166.1200 S.O2    1  UNL1        0.0964
      5 O         141.5152  138.7940  166.3245 O.2     1  UNL1       -0.1482
      6 O         140.3912  141.5452  165.9155 O.2     1  UNL1       -0.1482
      7 C         142.2062  140.5747  165.4017 C.ar    1  UNL1        0.1272
      8 C         142.7236  139.7405  164.2676 C.ar    1  UNL1        0.0211
      9 C         143.9766  140.1457  163.5493 C.ar    1  UNL1        0.0128
     10 C         144.7121  141.3850  163.9652 C.ar    1  UNL1        0.0578
     11 CL        145.9651  141.7901  163.2469 Cl      1  UNL1       -0.0822
     12 C         144.1947  142.2193  165.0994 C.ar    1  UNL1        0.0128
     13 C         142.9417  141.8141  165.8177 C.ar    1  UNL1        0.0211
     14 N         139.5434  140.0636  168.2997 N.pl3   1  UNL1       -0.2381
     15 H         138.7776  139.6967  168.7979 H       1  UNL1        0.1721
     16 C         140.5534  140.9218  169.0021 C.ar    1  UNL1        0.0631
     17 C         140.3027  142.3914  169.1686 C.ar    1  UNL1        0.0159
     18 C         141.3127  143.2496  169.8710 C.ar    1  UNL1        0.0013
     19 C         142.5733  142.6383  170.4070 C.ar    1  UNL1        0.0001
     20 C         142.8239  141.1689  170.2405 C.ar    1  UNL1        0.0013
     21 C         141.8139  140.3106  169.5381 C.ar    1  UNL1        0.0159
     22 O         138.7608  138.7610  164.6336 O.3     1  UNL1       -0.4080
     23 C         138.6935  139.8728  163.6289 C.ar    1  UNL1        0.1503
     24 C         139.5574  139.8298  162.4035 C.ar    1  UNL1        0.0408
     25 C         139.4900  140.9416  161.3989 C.ar    1  UNL1        0.0400
     26 C         138.5586  142.0966  161.6198 C.ar    1  UNL1        0.1393
     27 C         137.6947  142.1396  162.8453 C.ar    1  UNL1        0.0400
     28 C         137.7621  141.0278  163.8498 C.ar    1  UNL1        0.0408
     29 O         138.4913  143.2085  160.6152 O.3     1  UNL1       -0.4706
     30 C         139.7360  143.9564  160.2397 C.3     1  UNL1        0.2320
     31 C         140.7455  144.3088  161.2919 C.ar    1  UNL1        0.0212
     32 C         140.3376  145.1344  162.4759 C.ar    1  UNL1       -0.0007
     33 C         141.3470  145.4867  163.5280 C.ar    1  UNL1       -0.0002
     34 C         142.7643  145.0135  163.3960 C.ar    1  UNL1       -0.0000
     35 C         143.1721  144.1879  162.2120 C.ar    1  UNL1       -0.0002
     36 C         142.1627  143.8356  161.1599 C.ar    1  UNL1       -0.0007
@<TRIPOS>BOND
     1     1     2    2
     2     2    22    1
     3    22    23    1
     4    23    24   ar
     5    24    25   ar
     6    25    26   ar
     7    26    29    1
     8    29    30    1
     9    30    31    1
    10    31    32   ar
    11    32    33   ar
    12    33    34   ar
    13    34    35   ar
    14    35    36   ar
    15    26    27   ar
    16    27    28   ar
    17     2     3   am
    18     3    14    1
    19    14    16    1
    20    16    17   ar
    21    17    18   ar
    22    18    19   ar
    23    19    20   ar
    24    20    21   ar
    25     3     4    1
    26     4     5    2
    27     4     6    2
    28     4     7    1
    29     7     8   ar
    30     8     9   ar
    31     9    10   ar
    32    10    11    1
    33    10    12   ar
    34    12    13   ar
    35    28    23   ar
    36    21    16   ar
    37    13     7   ar
    38    36    31   ar
    39    14    15    1
@<TRIPOS>MOLECULE
*****
 36 39 0 0 0
SMALL
GASTEIGER

@<TRIPOS>ATOM
      1 O         145.8123  141.4055  163.2877 O.2     1  UNL1       -0.2224
      2 C         144.5179  141.0588  163.9617 C.2     1  UNL1        0.4453
      3 N         143.8129  139.7798  163.6191 N.am    1  UNL1       -0.0488
      4 S         142.5185  139.4331  164.2931 S.O2    1  UNL1        0.0964
      5 O         141.7608  140.0583  163.1596 O.2     1  UNL1       -0.1482
      6 O         143.2763  138.8079  165.4267 O.2     1  UNL1       -0.1482
      7 C         141.2242  139.0864  164.9672 C.ar    1  UNL1        0.1272
      8 C         140.3738  137.9733  164.4307 C.ar    1  UNL1        0.0211
      9 C         139.0794  137.6266  165.1048 C.ar    1  UNL1        0.0128
     10 C         138.6354  138.3930  166.3154 C.ar    1  UNL1        0.0578
     11 CL        137.3411  138.0462  166.9895 Cl      1  UNL1       -0.0822
     12 C         139.4858  139.5061  166.8519 C.ar    1  UNL1        0.0128
     13 C         140.7802  139.8528  166.1779 C.ar    1  UNL1        0.0211
     14 N         144.4023  138.8477  162.6024 N.pl3   1  UNL1       -0.2381
     15 H         145.1148  138.2207  162.8640 H       1  UNL1        0.1721
     16 C         143.9061  138.8709  161.1870 C.ar    1  UNL1        0.0631
     17 C         143.2607  137.6514  160.5984 C.ar    1  UNL1        0.0159
     18 C         142.7645  137.6747  159.1831 C.ar    1  UNL1        0.0013
     19 C         142.9137  138.9173  158.3563 C.ar    1  UNL1        0.0001
     20 C         143.5591  140.1367  158.9448 C.ar    1  UNL1        0.0013
     21 C         144.0553  140.1136  160.3602 C.ar    1  UNL1        0.0159
     22 O         143.9286  141.9909  164.9784 O.3     1  UNL1       -0.4080
     23 C         142.7059  142.7921  164.6417 C.ar    1  UNL1        0.1503
     24 C         141.5993  142.9291  165.6449 C.ar    1  UNL1        0.0408
     25 C         140.3767  143.7302  165.3082 C.ar    1  UNL1        0.0400
     26 C         140.2608  144.3943  163.9682 C.ar    1  UNL1        0.1393
     27 C         141.3674  144.2573  162.9650 C.ar    1  UNL1        0.0400
     28 C         142.5900  143.4562  163.3017 C.ar    1  UNL1        0.0408
     29 O         139.0381  145.1955  163.6315 O.3     1  UNL1       -0.4706
     30 C         137.8254  144.5134  163.0711 C.3     1  UNL1        0.2320
     31 C         137.8746  143.0523  162.7353 C.ar    1  UNL1        0.0212
     32 C         138.2190  142.6140  161.3427 C.ar    1  UNL1       -0.0007
     33 C         138.2683  141.1530  161.0070 C.ar    1  UNL1       -0.0002
     34 C         137.9731  140.1302  162.0637 C.ar    1  UNL1       -0.0000
     35 C         137.6286  140.5684  163.4563 C.ar    1  UNL1       -0.0002
     36 C         137.5794  142.0295  163.7921 C.ar    1  UNL1       -0.0007
@<TRIPOS>BOND
     1     1     2    2
     2     2    22    1
     3    22    23    1
     4    23    24   ar
     5    24    25   ar
     6    25    26   ar
     7    26    29    1
     8    29    30    1
     9    30    31    1
    10    31    32   ar
    11    32    33   ar
    12    33    34   ar
    13    34    35   ar
    14    35    36   ar
    15    26    27   ar
    16    27    28   ar
    17     2     3   am
    18     3    14    1
    19    14    16    1
    20    16    17   ar
    21    17    18   ar
    22    18    19   ar
    23    19    20   ar
    24    20    21   ar
    25     3     4    1
    26     4     5    2
    27     4     6    2
    28     4     7    1
    29     7     8   ar
    30     8     9   ar
    31     9    10   ar
    32    10    11    1
    33    10    12   ar
    34    12    13   ar
    35    28    23   ar
    36    21    16   ar
    37    13     7   ar
    38    36    31   ar
    39    14    15    1
@<TRIPOS>MOLECULE
*****
 36 39 0 0 0
SMALL
GASTEIGER

@<TRIPOS>ATOM
      1 O         137.7515  138.3499  167.3722 O.2     1  UNL1       -0.2224
      2 C         138.5186  139.2782  166.4780 C.2     1  UNL1        0.4453
      3 N         139.6404  140.1020  167.0374 N.am    1  UNL1       -0.0488
      4 S         140.4076  141.0303  166.1431 S.O2    1  UNL1        0.0964
      5 O         139.2745  142.0121  166.1903 O.2     1  UNL1       -0.1482
      6 O         141.5406  140.0486  166.0960 O.2     1  UNL1       -0.1482
      7 C         141.1747  141.9586  165.2488 C.ar    1  UNL1        0.1272
      8 C         142.4315  142.6099  165.7450 C.ar    1  UNL1        0.0211
      9 C         143.1987  143.5382  164.8507 C.ar    1  UNL1        0.0128
     10 C         142.7090  143.8152  163.4603 C.ar    1  UNL1        0.0578
     11 CL        143.4761  144.7435  162.5660 Cl      1  UNL1       -0.0822
     12 C         141.4521  143.1640  162.9640 C.ar    1  UNL1        0.0128
     13 C         140.6849  142.2357  163.8583 C.ar    1  UNL1        0.0211
     14 N         139.9950  139.9976  168.4912 N.pl3   1  UNL1       -0.2381
     15 H         139.5994  139.2858  169.0444 H       1  UNL1        0.1721
     16 C         140.9523  140.9776  169.1019 C.ar    1  UNL1        0.0631
     17 C         140.4888  142.3610  169.4507 C.ar    1  UNL1        0.0159
     18 C         141.4461  143.3410  170.0615 C.ar    1  UNL1        0.0013
     19 C         142.8669  142.9378  170.3234 C.ar    1  UNL1        0.0001
     20 C         143.3305  141.5545  169.9746 C.ar    1  UNL1        0.0013
     21 C         142.3731  140.5744  169.3638 C.ar    1  UNL1        0.0159
     22 O         138.1641  139.3826  165.0242 O.3     1  UNL1       -0.4080
     23 C         139.1184  138.8805  163.9815 C.ar    1  UNL1        0.1503
     24 C         139.1870  139.5521  162.6420 C.ar    1  UNL1        0.0408
     25 C         140.1413  139.0500  161.5994 C.ar    1  UNL1        0.0400
     26 C         141.0270  137.8763  161.8962 C.ar    1  UNL1        0.1393
     27 C         140.9584  137.2048  163.2357 C.ar    1  UNL1        0.0400
     28 C         140.0041  137.7069  164.2783 C.ar    1  UNL1        0.0408
     29 O         141.9813  137.3743  160.8535 O.3     1  UNL1       -0.4706
     30 C         143.4576  137.5733  161.0298 C.3     1  UNL1        0.2320
     31 C         143.9709  138.7939  161.7346 C.ar    1  UNL1        0.0212
     32 C         144.2888  138.7361  163.1993 C.ar    1  UNL1       -0.0007
     33 C         144.8021  139.9566  163.9041 C.ar    1  UNL1       -0.0002
     34 C         144.9976  141.2350  163.1440 C.ar    1  UNL1       -0.0000
     35 C         144.6798  141.2927  161.6792 C.ar    1  UNL1       -0.0002
     36 C         144.1664  140.0722  160.9745 C.ar    1  UNL1       -0.0007
@<TRIPOS>BOND
     1     1     2    2
     2     2    22    1
     3    22    23    1
     4    23    24   ar
     5    24    25   ar
     6    25    26   ar
     7    26    29    1
     8    29    30    1
     9    30    31    1
    10    31    32   ar
    11    32    33   ar
    12    33    34   ar
    13    34    35   ar
    14    35    36   ar
    15    26    27   ar
    16    27    28   ar
    17     2     3   am
    18     3    14    1
    19    14    16    1
    20    16    17   ar
    21    17    18   ar
    22    18    19   ar
    23    19    20   ar
    24    20    21   ar
    25     3     4    1
    26     4     5    2
    27     4     6    2
    28     4     7    1
    29     7     8   ar
    30     8     9   ar
    31     9    10   ar
    32    10    11    1
    33    10    12   ar
    34    12    13   ar
    35    28    23   ar
    36    21    16   ar
    37    13     7   ar
    38    36    31   ar
    39    14    15    1
@<TRIPOS>MOLECULE
*****
 36 39 0 0 0
SMALL
GASTEIGER

@<TRIPOS>ATOM
      1 O         145.7532  142.1123  162.0704 O.2     1  UNL1       -0.2224
      2 C         145.0214  141.8944  163.3615 C.2     1  UNL1        0.4453
      3 N         144.1233  142.9660  163.9047 N.am    1  UNL1       -0.0488
      4 S         143.3915  142.7481  165.1958 S.O2    1  UNL1        0.0964
      5 O         142.2206  142.1949  164.4388 O.2     1  UNL1       -0.1482
      6 O         144.5623  143.3014  165.9528 O.2     1  UNL1       -0.1482
      7 C         142.6597  142.5302  166.4869 C.ar    1  UNL1        0.1272
      8 C         141.1650  142.4048  166.4899 C.ar    1  UNL1        0.0211
      9 C         140.4332  142.1869  167.7810 C.ar    1  UNL1        0.0128
     10 C         141.1961  142.0944  169.0692 C.ar    1  UNL1        0.0578
     11 CL        140.4643  141.8765  170.3603 Cl      1  UNL1       -0.0822
     12 C         142.6909  142.2199  169.0663 C.ar    1  UNL1        0.0128
     13 C         143.4227  142.4378  167.7751 C.ar    1  UNL1        0.0211
     14 N         143.9570  144.2556  163.1568 N.pl3   1  UNL1       -0.2381
     15 H         144.6866  144.9165  163.1469 H       1  UNL1        0.1721
     16 C         142.6792  144.5380  162.4238 C.ar    1  UNL1        0.0631
     17 C         142.4511  143.9536  161.0613 C.ar    1  UNL1        0.0159
     18 C         141.1732  144.2360  160.3283 C.ar    1  UNL1        0.0013
     19 C         140.1234  145.1030  160.9579 C.ar    1  UNL1        0.0001
     20 C         140.3514  145.6875  162.3203 C.ar    1  UNL1        0.0013
     21 C         141.6293  145.4050  163.0534 C.ar    1  UNL1        0.0159
     22 O         145.1876  140.6048  164.1095 O.3     1  UNL1       -0.4080
     23 C         144.0324  139.6562  164.2348 C.ar    1  UNL1        0.1503
     24 C         143.2841  139.2197  163.0103 C.ar    1  UNL1        0.0408
     25 C         142.1290  138.2710  163.1357 C.ar    1  UNL1        0.0400
     26 C         141.7222  137.7589  164.4856 C.ar    1  UNL1        0.1393
     27 C         142.4705  138.1954  165.7101 C.ar    1  UNL1        0.0400
     28 C         143.6256  139.1440  165.5847 C.ar    1  UNL1        0.0408
     29 O         140.5670  136.8102  164.6109 O.3     1  UNL1       -0.4706
     30 C         139.2066  137.3286  164.9721 C.3     1  UNL1        0.2320
     31 C         138.7255  138.6314  164.4052 C.ar    1  UNL1        0.0212
     32 C         138.4069  138.7413  162.9436 C.ar    1  UNL1       -0.0007
     33 C         137.9259  140.0441  162.3768 C.ar    1  UNL1       -0.0002
     34 C         137.7635  141.2370  163.2716 C.ar    1  UNL1       -0.0000
     35 C         138.0821  141.1271  164.7332 C.ar    1  UNL1       -0.0002
     36 C         138.5631  139.8243  165.3000 C.ar    1  UNL1       -0.0007
@<TRIPOS>BOND
     1     1     2    2
     2     2    22    1
     3    22    23    1
     4    23    24   ar
     5    24    25   ar
     6    25    26   ar
     7    26    29    1
     8    29    30    1
     9    30    31    1
    10    31    32   ar
    11    32    33   ar
    12    33    34   ar
    13    34    35   ar
    14    35    36   ar
    15    26    27   ar
    16    27    28   ar
    17     2     3   am
    18     3    14    1
    19    14    16    1
    20    16    17   ar
    21    17    18   ar
    22    18    19   ar
    23    19    20   ar
    24    20    21   ar
    25     3     4    1
    26     4     5    2
    27     4     6    2
    28     4     7    1
    29     7     8   ar
    30     8     9   ar
    31     9    10   ar
    32    10    11    1
    33    10    12   ar
    34    12    13   ar
    35    28    23   ar
    36    21    16   ar
    37    13     7   ar
    38    36    31   ar
    39    14    15    1
@<TRIPOS>MOLECULE
*****
 36 39 0 0 0
SMALL
GASTEIGER

@<TRIPOS>ATOM
      1 O         144.1428  137.5492  166.9794 O.2     1  UNL1       -0.2224
      2 C         143.1278  138.3739  166.2449 C.2     1  UNL1        0.4453
      3 N         142.5385  139.5910  166.8942 N.am    1  UNL1       -0.0488
      4 S         141.5235  140.4157  166.1597 S.O2    1  UNL1        0.0964
      5 O         142.5807  141.4298  165.8373 O.2     1  UNL1       -0.1482
      6 O         140.4662  139.4016  166.4820 O.2     1  UNL1       -0.1482
      7 C         140.5084  141.2404  165.4252 C.ar    1  UNL1        0.1272
      8 C         139.7886  140.6647  164.2419 C.ar    1  UNL1        0.0211
      9 C         138.7735  141.4894  163.5074 C.ar    1  UNL1        0.0128
     10 C         138.4783  142.8899  163.9562 C.ar    1  UNL1        0.0578
     11 CL        137.4632  143.7146  163.2217 Cl      1  UNL1       -0.0822
     12 C         139.1981  143.4657  165.1396 C.ar    1  UNL1        0.0128
     13 C         140.2132  142.6410  165.8741 C.ar    1  UNL1        0.0211
     14 N         142.9643  139.9833  168.2779 N.pl3   1  UNL1       -0.2381
     15 H         143.8113  139.6436  168.6472 H       1  UNL1        0.1721
     16 C         142.0995  140.8932  169.0990 C.ar    1  UNL1        0.0631
     17 C         140.9129  140.3407  169.8317 C.ar    1  UNL1        0.0159
     18 C         140.0482  141.2506  170.6528 C.ar    1  UNL1        0.0013
     19 C         140.3699  142.7130  170.7412 C.ar    1  UNL1        0.0001
     20 C         141.5565  143.2655  170.0086 C.ar    1  UNL1        0.0013
     21 C         142.4213  142.3556  169.1874 C.ar    1  UNL1        0.0159
     22 O         142.7020  137.9816  164.8612 O.3     1  UNL1       -0.4080
     23 C         143.0944  138.8289  163.6872 C.ar    1  UNL1        0.1503
     24 C         142.1827  138.9351  162.5008 C.ar    1  UNL1        0.0408
     25 C         142.5751  139.7824  161.3269 C.ar    1  UNL1        0.0400
     26 C         143.8792  140.5234  161.3393 C.ar    1  UNL1        0.1393
     27 C         144.7909  140.4172  162.5257 C.ar    1  UNL1        0.0400
     28 C         144.3985  139.5699  163.6996 C.ar    1  UNL1        0.0408
     29 O         144.2716  141.3707  160.1653 O.3     1  UNL1       -0.4706
     30 C         144.3882  142.8582  160.3195 C.3     1  UNL1        0.2320
     31 C         143.6208  143.5628  161.3988 C.ar    1  UNL1        0.0212
     32 C         144.3247  144.0247  162.6402 C.ar    1  UNL1       -0.0007
     33 C         143.5573  144.7292  163.7193 C.ar    1  UNL1       -0.0002
     34 C         142.0860  144.9719  163.5571 C.ar    1  UNL1       -0.0000
     35 C         141.3820  144.5100  162.3157 C.ar    1  UNL1       -0.0002
     36 C         142.1494  143.8054  161.2366 C.ar    1  UNL1       -0.0007
@<TRIPOS>BOND
     1     1     2    2
     2     2    22    1
     3    22    23    1
     4    23    24   ar
     5    24    25   ar
     6    25    26   ar
     7    26    29    1
     8    29    30    1
     9    30    31    1
    10    31    32   ar
    11    32    33   ar
    12    33    34   ar
    13    34    35   ar
    14    35    36   ar
    15    26    27   ar
    16    27    28   ar
    17     2     3   am
    18     3    14    1
    19    14    16    1
    20    16    17   ar
    21    17    18   ar
    22    18    19   ar
    23    19    20   ar
    24    20    21   ar
    25     3     4    1
    26     4     5    2
    27     4     6    2
    28     4     7    1
    29     7     8   ar
    30     8     9   ar
    31     9    10   ar
    32    10    11    1
    33    10    12   ar
    34    12    13   ar
    35    28    23   ar
    36    21    16   ar
    37    13     7   ar
    38    36    31   ar
    39    14    15    1
@<TRIPOS>MOLECULE
*****
 36 39 0 0 0
SMALL
GASTEIGER

@<TRIPOS>ATOM
      1 O         139.2268  139.5629  167.3922 O.2     1  UNL1       -0.2224
      2 C         139.5810  139.5156  165.9354 C.2     1  UNL1        0.4453
      3 N         140.9812  139.1803  165.5145 N.am    1  UNL1       -0.0488
      4 S         141.3355  139.1330  164.0577 S.O2    1  UNL1        0.0964
      5 O         140.9169  137.6937  164.0027 O.2     1  UNL1       -0.1482
      6 O         141.7541  140.5724  164.1128 O.2     1  UNL1       -0.1482
      7 C         141.6897  139.0858  162.6009 C.ar    1  UNL1        0.1272
      8 C         141.3656  140.2497  161.7121 C.ar    1  UNL1        0.0211
      9 C         141.7199  140.2024  160.2553 C.ar    1  UNL1        0.0128
     10 C         142.3982  138.9912  159.6873 C.ar    1  UNL1        0.0578
     11 CL        142.7524  138.9439  158.2305 Cl      1  UNL1       -0.0822
     12 C         142.7223  137.8271  160.5762 C.ar    1  UNL1        0.0128
     13 C         142.3681  137.8744  162.0330 C.ar    1  UNL1        0.0211
     14 N         142.0271  138.8924  166.5504 N.pl3   1  UNL1       -0.2381
     15 H         142.4316  137.9966  166.6058 H       1  UNL1        0.1721
     16 C         142.4567  139.9694  167.5020 C.ar    1  UNL1        0.0631
     17 C         142.5655  139.6747  168.9687 C.ar    1  UNL1        0.0159
     18 C         142.9952  140.7518  169.9203 C.ar    1  UNL1        0.0013
     19 C         143.3160  142.1235  169.4051 C.ar    1  UNL1        0.0001
     20 C         143.2072  142.4182  167.9384 C.ar    1  UNL1        0.0013
     21 C         142.7776  141.3412  166.9868 C.ar    1  UNL1        0.0159
     22 O         138.5351  139.8035  164.8995 O.3     1  UNL1       -0.4080
     23 C         138.4724  141.1554  164.2525 C.ar    1  UNL1        0.1503
     24 C         138.8126  142.3826  165.0450 C.ar    1  UNL1        0.0408
     25 C         138.7499  143.7344  164.3980 C.ar    1  UNL1        0.0400
     26 C         138.3471  143.8590  162.9585 C.ar    1  UNL1        0.1393
     27 C         138.0070  142.6317  162.1659 C.ar    1  UNL1        0.0400
     28 C         138.0697  141.2799  162.8130 C.ar    1  UNL1        0.0408
     29 O         138.2844  145.2109  162.3114 O.3     1  UNL1       -0.4706
     30 C         139.5500  145.9577  162.0104 C.3     1  UNL1        0.2320
     31 C         140.8776  145.2767  162.1651 C.ar    1  UNL1        0.0212
     32 C         141.3959  144.3873  161.0741 C.ar    1  UNL1       -0.0007
     33 C         142.7234  143.7064  161.2289 C.ar    1  UNL1       -0.0002
     34 C         143.5326  143.9149  162.4745 C.ar    1  UNL1       -0.0000
     35 C         143.0143  144.8043  163.5655 C.ar    1  UNL1       -0.0002
     36 C         141.6868  145.4852  163.4108 C.ar    1  UNL1       -0.0007
@<TRIPOS>BOND
     1     1     2    2
     2     2    22    1
     3    22    23    1
     4    23    24   ar
     5    24    25   ar
     6    25    26   ar
     7    26    29    1
     8    29    30    1
     9    30    31    1
    10    31    32   ar
    11    32    33   ar
    12    33    34   ar
    13    34    35   ar
    14    35    36   ar
    15    26    27   ar
    16    27    28   ar
    17     2     3   am
    18     3    14    1
    19    14    16    1
    20    16    17   ar
    21    17    18   ar
    22    18    19   ar
    23    19    20   ar
    24    20    21   ar
    25     3     4    1
    26     4     5    2
    27     4     6    2
    28     4     7    1
    29     7     8   ar
    30     8     9   ar
    31     9    10   ar
    32    10    11    1
    33    10    12   ar
    34    12    13   ar
    35    28    23   ar
    36    21    16   ar
    37    13     7   ar
    38    36    31   ar
    39    14    15    1
@<TRIPOS>MOLECULE
*****
 36 39 0 0 0
SMALL
GASTEIGER

@<TRIPOS>ATOM
      1 O         145.4754  144.2979  166.3717 O.2     1  UNL1       -0.2224
      2 C         144.5182  143.3563  165.7030 C.2     1  UNL1        0.4453
      3 N         143.6147  142.4917  166.5313 N.am    1  UNL1       -0.0488
      4 S         142.6575  141.5502  165.8626 S.O2    1  UNL1        0.0964
      5 O         141.5673  142.5735  165.9821 O.2     1  UNL1       -0.1482
      6 O         143.7476  140.5268  165.7431 O.2     1  UNL1       -0.1482
      7 C         141.7003  140.6086  165.1939 C.ar    1  UNL1        0.1272
      8 C         141.7246  140.4481  163.7027 C.ar    1  UNL1        0.0211
      9 C         140.7674  139.5066  163.0340 C.ar    1  UNL1        0.0128
     10 C         139.7859  138.7254  163.8564 C.ar    1  UNL1        0.0578
     11 CL        138.8287  137.7838  163.1877 Cl      1  UNL1       -0.0822
     12 C         139.7616  138.8858  165.3477 C.ar    1  UNL1        0.0128
     13 C         140.7188  139.8274  166.0164 C.ar    1  UNL1        0.0211
     14 N         143.6683  142.5688  168.0284 N.pl3   1  UNL1       -0.2381
     15 H         144.3946  143.0655  168.4700 H       1  UNL1        0.1721
     16 C         142.6154  141.8891  168.8525 C.ar    1  UNL1        0.0631
     17 C         142.7477  140.4323  169.1851 C.ar    1  UNL1        0.0159
     18 C         141.6947  139.7526  170.0092 C.ar    1  UNL1        0.0013
     19 C         140.5095  140.5295  170.5008 C.ar    1  UNL1        0.0001
     20 C         140.3772  141.9862  170.1683 C.ar    1  UNL1        0.0013
     21 C         141.4302  142.6660  169.3441 C.ar    1  UNL1        0.0159
     22 O         144.4646  143.2793  164.2059 O.3     1  UNL1       -0.4080
     23 C         143.3036  143.8741  163.4654 C.ar    1  UNL1        0.1503
     24 C         142.9005  143.3185  162.1317 C.ar    1  UNL1        0.0408
     25 C         141.7396  143.9133  161.3913 C.ar    1  UNL1        0.0400
     26 C         140.9816  145.0638  161.9846 C.ar    1  UNL1        0.1393
     27 C         141.3846  145.6194  163.3183 C.ar    1  UNL1        0.0400
     28 C         142.5456  145.0246  164.0587 C.ar    1  UNL1        0.0408
     29 O         139.8206  145.6586  161.2441 O.3     1  UNL1       -0.4706
     30 C         138.4178  145.3477  161.6745 C.3     1  UNL1        0.2320
     31 C         138.1275  144.0846  162.4298 C.ar    1  UNL1        0.0212
     32 C         137.9693  142.7887  161.6912 C.ar    1  UNL1       -0.0007
     33 C         137.6790  141.5256  162.4464 C.ar    1  UNL1       -0.0002
     34 C         137.5469  141.5585  163.9402 C.ar    1  UNL1       -0.0000
     35 C         137.7051  142.8544  164.6788 C.ar    1  UNL1       -0.0002
     36 C         137.9954  144.1174  163.9236 C.ar    1  UNL1       -0.0007
@<TRIPOS>BOND
     1     1     2    2
     2     2    22    1
     3    22    23    1
     4    23    24   ar
     5    24    25   ar
     6    25    26   ar
     7    26    29    1
     8    29    30    1
     9    30    31    1
    10    31    32   ar
    11    32    33   ar
    12    33    34   ar
    13    34    35   ar
    14    35    36   ar
    15    26    27   ar
    16    27    28   ar
    17     2     3   am
    18     3    14    1
    19    14    16    1
    20    16    17   ar
    21    17    18   ar
    22    18    19   ar
    23    19    20   ar
    24    20    21   ar
    25     3     4    1
    26     4     5    2
    27     4     6    2
    28     4     7    1
    29     7     8   ar
    30     8     9   ar
    31     9    10   ar
    32    10    11    1
    33    10    12   ar
    34    12    13   ar
    35    28    23   ar
    36    21    16   ar
    37    13     7   ar
    38    36    31   ar
    39    14    15    1
