@<TRIPOS>MOLECULE
*****
 32 35 0 0 0
SMALL
GASTEIGER

@<TRIPOS>ATOM
      1 O         140.2800  137.4402  162.4831 O.2     1  UNL1       -0.2522
      2 C         140.1860  138.9373  162.4864 C.2     1  UNL1        0.3079
      3 N         139.7540  139.6589  163.7284 N.am    1  UNL1       -0.2844
      4 N         140.5241  139.7127  161.2477 N.am    1  UNL1       -0.2448
      5 H         139.6923  140.6414  163.7306 H       1  UNL1        0.1513
      6 C         140.4301  141.2097  161.2510 C.ar    1  UNL1        0.0552
      7 C         141.6084  142.0342  161.6774 C.ar    1  UNL1        0.0155
      8 C         141.5144  143.5313  161.6807 C.ar    1  UNL1        0.0080
      9 C         140.2422  144.2038  161.2576 C.ar    1  UNL1        0.0346
     10 BR        140.1482  145.7009  161.2609 Br      1  UNL1       -0.0490
     11 C         139.0639  143.3793  160.8312 C.ar    1  UNL1        0.0080
     12 C         139.1579  141.8823  160.8279 C.ar    1  UNL1        0.0155
     13 C         140.9561  138.9911  160.0057 C.3     1  UNL1        0.0840
     14 C         139.9514  138.6619  158.9416 C.3     1  UNL1        0.0376
     15 C         140.3835  137.9403  157.6996 C.3     1  UNL1        0.0741
     16 N         141.8202  137.5478  157.5217 N.3     1  UNL1       -0.2688
     17 C         142.8249  137.8769  158.5857 C.3     1  UNL1        0.0741
     18 C         142.3929  138.5985  159.8278 C.3     1  UNL1        0.0376
     19 C         142.2523  136.8261  156.2797 C.3     1  UNL1        0.0992
     20 C         142.2291  135.3269  156.2369 C.ar    1  UNL1       -0.0031
     21 C         143.1471  134.5371  157.1221 C.ar    1  UNL1        0.0178
     22 C         143.1240  133.0379  157.0794 C.ar    1  UNL1        0.0986
     23 N         142.1829  132.3284  156.1514 N.ar    1  UNL1       -0.2423
     24 C         141.2649  133.1182  155.2662 C.ar    1  UNL1        0.0986
     25 C         141.2881  134.6175  155.3090 C.ar    1  UNL1        0.0178
     26 C         139.4159  138.8834  164.9671 C.3     1  UNL1        0.1177
     27 C         139.9324  139.3371  166.3003 C.ar    1  UNL1       -0.0025
     28 C         138.9734  139.6335  167.4149 C.ar    1  UNL1       -0.0026
     29 C         139.4899  140.0871  168.7481 C.ar    1  UNL1       -0.0003
     30 C         140.9656  140.2444  168.9666 C.ar    1  UNL1       -0.0000
     31 C         141.9246  139.9481  167.8521 C.ar    1  UNL1       -0.0003
     32 C         141.4081  139.4944  166.5189 C.ar    1  UNL1       -0.0026
@<TRIPOS>BOND
     1     1     2    2
     2     2     3   am
     3     3    26    1
     4    26    27    1
     5    27    28   ar
     6    28    29   ar
     7    29    30   ar
     8    30    31   ar
     9    31    32   ar
    10     2     4   am
    11     4     6    1
    12     6     7   ar
    13     7     8   ar
    14     8     9   ar
    15     9    10    1
    16     9    11   ar
    17    11    12   ar
    18     4    13    1
    19    13    14    1
    20    14    15    1
    21    15    16    1
    22    16    19    1
    23    19    20    1
    24    20    21   ar
    25    21    22   ar
    26    22    23   ar
    27    23    24   ar
    28    24    25   ar
    29    16    17    1
    30    17    18    1
    31    32    27   ar
    32    12     6   ar
    33    18    13    1
    34    25    20   ar
    35     3     5    1
@<TRIPOS>MOLECULE
*****
 32 35 0 0 0
SMALL
GASTEIGER

@<TRIPOS>ATOM
      1 O         141.7890  141.2783  158.2753 O.2     1  UNL1       -0.2522
      2 C         141.2553  140.7412  159.5702 C.2     1  UNL1        0.3079
      3 N         141.0181  141.6680  160.7255 N.am    1  UNL1       -0.2844
      4 N         140.9589  139.2775  159.7098 N.am    1  UNL1       -0.2448
      5 H         140.6678  141.3156  161.5755 H       1  UNL1        0.1513
      6 C         140.4253  138.7404  161.0047 C.ar    1  UNL1        0.0552
      7 C         138.9493  138.7557  161.2715 C.ar    1  UNL1        0.0155
      8 C         138.4157  138.2187  162.5665 C.ar    1  UNL1        0.0080
      9 C         139.3580  137.6664  163.5945 C.ar    1  UNL1        0.0346
     10 BR        138.8243  137.1293  164.8894 Br      1  UNL1       -0.0490
     11 C         140.8340  137.6511  163.3276 C.ar    1  UNL1        0.0080
     12 C         141.3676  138.1881  162.0327 C.ar    1  UNL1        0.0155
     13 C         141.1962  138.3508  158.5544 C.3     1  UNL1        0.0840
     14 C         140.0660  137.9937  157.6350 C.3     1  UNL1        0.0376
     15 C         140.3033  137.0669  156.4797 C.3     1  UNL1        0.0741
     16 N         141.6707  136.4973  156.2437 N.3     1  UNL1       -0.2688
     17 C         142.8008  136.8543  157.1630 C.3     1  UNL1        0.0741
     18 C         142.5636  137.7811  158.3184 C.3     1  UNL1        0.0376
     19 C         141.9080  135.5705  155.0883 C.3     1  UNL1        0.0992
     20 C         142.3221  134.1507  155.3385 C.ar    1  UNL1       -0.0031
     21 C         141.3117  133.0464  155.2401 C.ar    1  UNL1        0.0178
     22 C         141.7257  131.6265  155.4903 C.ar    1  UNL1        0.0986
     23 N         143.1501  131.3109  155.8389 N.ar    1  UNL1       -0.2423
     24 C         144.1605  132.4152  155.9373 C.ar    1  UNL1        0.0986
     25 C         143.7464  133.8351  155.6871 C.ar    1  UNL1        0.0178
     26 C         141.3144  143.1318  160.5860 C.3     1  UNL1        0.1177
     27 C         142.0475  143.8559  161.6761 C.ar    1  UNL1       -0.0025
     28 C         141.2973  144.7488  162.6194 C.ar    1  UNL1       -0.0026
     29 C         142.0304  145.4729  163.7095 C.ar    1  UNL1       -0.0003
     30 C         143.5136  145.3040  163.8563 C.ar    1  UNL1       -0.0000
     31 C         144.2638  144.4111  162.9129 C.ar    1  UNL1       -0.0003
     32 C         143.5307  143.6871  161.8229 C.ar    1  UNL1       -0.0026
@<TRIPOS>BOND
     1     1     2    2
     2     2     3   am
     3     3    26    1
     4    26    27    1
     5    27    28   ar
     6    28    29   ar
     7    29    30   ar
     8    30    31   ar
     9    31    32   ar
    10     2     4   am
    11     4     6    1
    12     6     7   ar
    13     7     8   ar
    14     8     9   ar
    15     9    10    1
    16     9    11   ar
    17    11    12   ar
    18     4    13    1
    19    13    14    1
    20    14    15    1
    21    15    16    1
    22    16    19    1
    23    19    20    1
    24    20    21   ar
    25    21    22   ar
    26    22    23   ar
    27    23    24   ar
    28    24    25   ar
    29    16    17    1
    30    17    18    1
    31    32    27   ar
    32    12     6   ar
    33    18    13    1
    34    25    20   ar
    35     3     5    1
@<TRIPOS>MOLECULE
*****
 32 35 0 0 0
SMALL
GASTEIGER

@<TRIPOS>ATOM
      1 O         142.0366  141.3186  159.3792 O.2     1  UNL1       -0.2522
      2 C         141.3879  141.8160  160.6369 C.2     1  UNL1        0.3079
      3 N         141.5754  141.0684  161.9238 N.am    1  UNL1       -0.2844
      4 N         140.5516  143.0609  160.6077 N.am    1  UNL1       -0.2448
      5 H         141.1496  141.3948  162.7493 H       1  UNL1        0.1513
      6 C         139.9029  143.5583  161.8654 C.ar    1  UNL1        0.0552
      7 C         138.4458  143.2998  162.1106 C.ar    1  UNL1        0.0155
      8 C         137.7971  143.7972  163.3683 C.ar    1  UNL1        0.0080
      9 C         138.6055  144.5531  164.3808 C.ar    1  UNL1        0.0346
     10 BR        137.9567  145.0505  165.6385 Br      1  UNL1       -0.0490
     11 C         140.0625  144.8115  164.1356 C.ar    1  UNL1        0.0080
     12 C         140.7112  144.3141  162.8779 C.ar    1  UNL1        0.0155
     13 C         140.3641  143.8084  159.3209 C.3     1  UNL1        0.0840
     14 C         141.1390  145.0669  159.0648 C.3     1  UNL1        0.0376
     15 C         140.9515  145.8144  157.7779 C.3     1  UNL1        0.0741
     16 N         139.9891  145.3034  156.7471 N.3     1  UNL1       -0.2688
     17 C         139.2142  144.0449  157.0032 C.3     1  UNL1        0.0741
     18 C         139.4017  143.2973  158.2901 C.3     1  UNL1        0.0376
     19 C         139.8016  146.0509  155.4603 C.3     1  UNL1        0.0992
     20 C         139.4804  147.5160  155.4838 C.ar    1  UNL1       -0.0031
     21 C         139.9342  148.4014  154.3613 C.ar    1  UNL1        0.0178
     22 C         139.6131  149.8664  154.3848 C.ar    1  UNL1        0.0986
     23 N         138.8382  150.4461  155.5309 N.ar    1  UNL1       -0.2423
     24 C         138.3844  149.5607  156.6535 C.ar    1  UNL1        0.0986
     25 C         138.7055  148.0956  156.6299 C.ar    1  UNL1        0.0178
     26 C         142.4116  139.8235  161.9530 C.3     1  UNL1        0.1177
     27 C         143.0103  139.3522  163.2451 C.ar    1  UNL1       -0.0025
     28 C         144.4653  139.5838  163.5262 C.ar    1  UNL1       -0.0026
     29 C         145.0639  139.1125  164.8183 C.ar    1  UNL1       -0.0003
     30 C         144.2073  138.4095  165.8293 C.ar    1  UNL1       -0.0000
     31 C         142.7523  138.1779  165.5483 C.ar    1  UNL1       -0.0003
     32 C         142.1537  138.6492  164.2562 C.ar    1  UNL1       -0.0026
@<TRIPOS>BOND
     1     1     2    2
     2     2     3   am
     3     3    26    1
     4    26    27    1
     5    27    28   ar
     6    28    29   ar
     7    29    30   ar
     8    30    31   ar
     9    31    32   ar
    10     2     4   am
    11     4     6    1
    12     6     7   ar
    13     7     8   ar
    14     8     9   ar
    15     9    10    1
    16     9    11   ar
    17    11    12   ar
    18     4    13    1
    19    13    14    1
    20    14    15    1
    21    15    16    1
    22    16    19    1
    23    19    20    1
    24    20    21   ar
    25    21    22   ar
    26    22    23   ar
    27    23    24   ar
    28    24    25   ar
    29    16    17    1
    30    17    18    1
    31    32    27   ar
    32    12     6   ar
    33    18    13    1
    34    25    20   ar
    35     3     5    1
@<TRIPOS>MOLECULE
*****
 32 35 0 0 0
SMALL
GASTEIGER

@<TRIPOS>ATOM
      1 O         141.5775  137.3381  161.9645 O.2     1  UNL1       -0.2522
      2 C         141.3845  138.8216  161.8547 C.2     1  UNL1        0.3079
      3 N         141.3115  139.6623  163.0949 N.am    1  UNL1       -0.2844
      4 N         141.2646  139.4644  160.5047 N.am    1  UNL1       -0.2448
      5 H         141.1849  140.6359  163.0228 H       1  UNL1        0.1513
      6 C         141.0717  140.9479  160.3949 C.ar    1  UNL1        0.0552
      7 C         142.2604  141.8493  160.2389 C.ar    1  UNL1        0.0155
      8 C         142.0674  143.3328  160.1291 C.ar    1  UNL1        0.0080
      9 C         140.6858  143.9148  160.1753 C.ar    1  UNL1        0.0346
     10 BR        140.4928  145.3983  160.0654 Br      1  UNL1       -0.0490
     11 C         139.4971  143.0134  160.3312 C.ar    1  UNL1        0.0080
     12 C         139.6900  141.5300  160.4411 C.ar    1  UNL1        0.0155
     13 C         141.3376  138.6237  159.2646 C.3     1  UNL1        0.0840
     14 C         142.6449  138.0208  158.8431 C.3     1  UNL1        0.0376
     15 C         142.7179  137.1801  157.6030 C.3     1  UNL1        0.0741
     16 N         141.4836  136.9423  156.7844 N.3     1  UNL1       -0.2688
     17 C         140.1764  137.5452  157.2058 C.3     1  UNL1        0.0741
     18 C         140.1034  138.3859  158.4460 C.3     1  UNL1        0.0376
     19 C         141.5567  136.1017  155.5443 C.3     1  UNL1        0.0992
     20 C         142.1090  134.7088  155.6138 C.ar    1  UNL1       -0.0031
     21 C         141.2268  133.5358  155.3045 C.ar    1  UNL1        0.0178
     22 C         141.7791  132.1429  155.3741 C.ar    1  UNL1        0.0986
     23 N         143.2137  131.9230  155.7529 N.ar    1  UNL1       -0.2423
     24 C         144.0960  133.0960  156.0623 C.ar    1  UNL1        0.0986
     25 C         143.5436  134.4889  155.9927 C.ar    1  UNL1        0.0178
     26 C         141.4315  139.0194  164.4448 C.3     1  UNL1        0.1177
     27 C         140.2003  138.7428  165.2559 C.ar    1  UNL1       -0.0025
     28 C         139.3668  137.5303  164.9642 C.ar    1  UNL1       -0.0026
     29 C         138.1357  137.2537  165.7752 C.ar    1  UNL1       -0.0003
     30 C         137.7381  138.1896  166.8779 C.ar    1  UNL1       -0.0000
     31 C         138.5715  139.4021  167.1696 C.ar    1  UNL1       -0.0003
     32 C         139.8026  139.6787  166.3586 C.ar    1  UNL1       -0.0026
@<TRIPOS>BOND
     1     1     2    2
     2     2     3   am
     3     3    26    1
     4    26    27    1
     5    27    28   ar
     6    28    29   ar
     7    29    30   ar
     8    30    31   ar
     9    31    32   ar
    10     2     4   am
    11     4     6    1
    12     6     7   ar
    13     7     8   ar
    14     8     9   ar
    15     9    10    1
    16     9    11   ar
    17    11    12   ar
    18     4    13    1
    19    13    14    1
    20    14    15    1
    21    15    16    1
    22    16    19    1
    23    19    20    1
    24    20    21   ar
    25    21    22   ar
    26    22    23   ar
    27    23    24   ar
    28    24    25   ar
    29    16    17    1
    30    17    18    1
    31    32    27   ar
    32    12     6   ar
    33    18    13    1
    34    25    20   ar
    35     3     5    1
@<TRIPOS>MOLECULE
*****
 32 35 0 0 0
SMALL
GASTEIGER

@<TRIPOS>ATOM
      1 O         143.4897  140.6069  159.6280 O.2     1  UNL1       -0.2522
      2 C         143.3674  139.6966  158.4421 C.2     1  UNL1        0.3079
      3 N         144.2279  139.9194  157.2337 N.am    1  UNL1       -0.2844
      4 N         142.3847  138.5636  158.4644 N.am    1  UNL1       -0.2448
      5 H         144.1476  139.3219  156.4554 H       1  UNL1        0.1513
      6 C         142.2624  137.6533  157.2785 C.ar    1  UNL1        0.0552
      7 C         142.9715  136.3315  157.2714 C.ar    1  UNL1        0.0155
      8 C         142.8492  135.4212  156.0854 C.ar    1  UNL1        0.0080
      9 C         142.0179  135.8327  154.9067 C.ar    1  UNL1        0.0346
     10 BR        141.8956  134.9224  153.7208 Br      1  UNL1       -0.0490
     11 C         141.3088  137.1545  154.9138 C.ar    1  UNL1        0.0080
     12 C         141.4311  138.0648  156.0998 C.ar    1  UNL1        0.0155
     13 C         141.5243  138.3409  159.6727 C.3     1  UNL1        0.0840
     14 C         142.1389  137.8553  160.9520 C.3     1  UNL1        0.0376
     15 C         141.2785  137.6326  162.1603 C.3     1  UNL1        0.0741
     16 N         139.8034  137.8955  162.0894 N.3     1  UNL1       -0.2688
     17 C         139.1887  138.3811  160.8102 C.3     1  UNL1        0.0741
     18 C         140.0492  138.6038  159.6018 C.3     1  UNL1        0.0376
     19 C         138.9430  137.6728  163.2977 C.3     1  UNL1        0.0992
     20 C         139.0377  138.6060  164.4683 C.ar    1  UNL1       -0.0031
     21 C         139.6960  139.9444  164.3090 C.ar    1  UNL1        0.0178
     22 C         139.7908  140.8776  165.4795 C.ar    1  UNL1        0.0986
     23 N         139.2272  140.4725  166.8093 N.ar    1  UNL1       -0.2423
     24 C         138.5688  139.1342  166.9685 C.ar    1  UNL1        0.0986
     25 C         138.4741  138.2009  165.7980 C.ar    1  UNL1        0.0178
     26 C         145.2106  141.0524  157.2114 C.3     1  UNL1        0.1177
     27 C         146.0216  141.3176  155.9776 C.ar    1  UNL1       -0.0025
     28 C         147.2726  142.1405  156.0650 C.ar    1  UNL1       -0.0026
     29 C         148.0835  142.4057  154.8313 C.ar    1  UNL1       -0.0003
     30 C         147.6434  141.8478  153.5102 C.ar    1  UNL1       -0.0000
     31 C         146.3924  141.0249  153.4229 C.ar    1  UNL1       -0.0003
     32 C         145.5815  140.7597  154.6566 C.ar    1  UNL1       -0.0026
@<TRIPOS>BOND
     1     1     2    2
     2     2     3   am
     3     3    26    1
     4    26    27    1
     5    27    28   ar
     6    28    29   ar
     7    29    30   ar
     8    30    31   ar
     9    31    32   ar
    10     2     4   am
    11     4     6    1
    12     6     7   ar
    13     7     8   ar
    14     8     9   ar
    15     9    10    1
    16     9    11   ar
    17    11    12   ar
    18     4    13    1
    19    13    14    1
    20    14    15    1
    21    15    16    1
    22    16    19    1
    23    19    20    1
    24    20    21   ar
    25    21    22   ar
    26    22    23   ar
    27    23    24   ar
    28    24    25   ar
    29    16    17    1
    30    17    18    1
    31    32    27   ar
    32    12     6   ar
    33    18    13    1
    34    25    20   ar
    35     3     5    1
@<TRIPOS>MOLECULE
*****
 32 35 0 0 0
SMALL
GASTEIGER

@<TRIPOS>ATOM
      1 O         142.1664  144.0742  159.8424 O.2     1  UNL1       -0.2522
      2 C         143.0694  143.8370  158.6683 C.2     1  UNL1        0.3079
      3 N         142.9713  144.7163  157.4570 N.am    1  UNL1       -0.2844
      4 N         144.0705  142.7206  158.7056 N.am    1  UNL1       -0.2448
      5 H         143.5640  144.5607  156.6864 H       1  UNL1        0.1513
      6 C         144.9735  142.4834  157.5315 C.ar    1  UNL1        0.0552
      7 C         146.4357  142.8018  157.6336 C.ar    1  UNL1        0.0155
      8 C         147.3387  142.5647  156.4596 C.ar    1  UNL1        0.0080
      9 C         146.7795  142.0091  155.1835 C.ar    1  UNL1        0.0346
     10 BR        147.6825  141.7719  154.0094 Br      1  UNL1       -0.0490
     11 C         145.3172  141.6907  155.0814 C.ar    1  UNL1        0.0080
     12 C         144.4142  141.9279  156.2554 C.ar    1  UNL1        0.0155
     13 C         144.1685  141.8413  159.9168 C.3     1  UNL1        0.0840
     14 C         143.6144  140.4479  159.8790 C.3     1  UNL1        0.0376
     15 C         143.7125  139.5686  161.0903 C.3     1  UNL1        0.0741
     16 N         144.3646  140.0827  162.3394 N.3     1  UNL1       -0.2688
     17 C         144.9187  141.4761  162.3773 C.3     1  UNL1        0.0741
     18 C         144.8207  142.3554  161.1660 C.3     1  UNL1        0.0376
     19 C         144.4627  139.2034  163.5507 C.3     1  UNL1        0.0992
     20 C         143.5077  139.3901  164.6923 C.ar    1  UNL1       -0.0031
     21 C         143.8148  138.7907  166.0326 C.ar    1  UNL1        0.0178
     22 C         142.8599  138.9774  167.1742 C.ar    1  UNL1        0.0986
     23 N         141.5978  139.7635  166.9756 N.ar    1  UNL1       -0.2423
     24 C         141.2908  140.3629  165.6353 C.ar    1  UNL1        0.0986
     25 C         142.2458  140.1762  164.4936 C.ar    1  UNL1        0.0178
     26 C         141.9702  145.8328  157.4198 C.3     1  UNL1        0.1177
     27 C         140.6734  145.6532  156.6876 C.ar    1  UNL1       -0.0025
     28 C         140.0652  144.2877  156.5631 C.ar    1  UNL1       -0.0026
     29 C         138.7684  144.1082  155.8309 C.ar    1  UNL1       -0.0003
     30 C         138.0799  145.2942  155.2232 C.ar    1  UNL1       -0.0000
     31 C         138.6881  146.6597  155.3477 C.ar    1  UNL1       -0.0003
     32 C         139.9848  146.8392  156.0798 C.ar    1  UNL1       -0.0026
@<TRIPOS>BOND
     1     1     2    2
     2     2     3   am
     3     3    26    1
     4    26    27    1
     5    27    28   ar
     6    28    29   ar
     7    29    30   ar
     8    30    31   ar
     9    31    32   ar
    10     2     4   am
    11     4     6    1
    12     6     7   ar
    13     7     8   ar
    14     8     9   ar
    15     9    10    1
    16     9    11   ar
    17    11    12   ar
    18     4    13    1
    19    13    14    1
    20    14    15    1
    21    15    16    1
    22    16    19    1
    23    19    20    1
    24    20    21   ar
    25    21    22   ar
    26    22    23   ar
    27    23    24   ar
    28    24    25   ar
    29    16    17    1
    30    17    18    1
    31    32    27   ar
    32    12     6   ar
    33    18    13    1
    34    25    20   ar
    35     3     5    1
@<TRIPOS>MOLECULE
*****
 32 35 0 0 0
SMALL
GASTEIGER

@<TRIPOS>ATOM
      1 O         141.6030  145.1940  162.3921 O.2     1  UNL1       -0.2522
      2 C         141.7395  143.9854  161.5142 C.2     1  UNL1        0.3079
      3 N         141.5131  144.1028  160.0360 N.am    1  UNL1       -0.2844
      4 N         142.1023  142.6595  162.1144 N.am    1  UNL1       -0.2448
      5 H         141.6027  143.3096  159.4598 H       1  UNL1        0.1513
      6 C         142.2388  141.4510  161.2365 C.ar    1  UNL1        0.0552
      7 C         143.5757  141.0895  160.6605 C.ar    1  UNL1        0.0155
      8 C         143.7122  139.8809  159.7826 C.ar    1  UNL1        0.0080
      9 C         142.5117  139.0338  159.4807 C.ar    1  UNL1        0.0346
     10 BR        142.6481  137.8252  158.6028 Br      1  UNL1       -0.0490
     11 C         141.1747  139.3953  160.0568 C.ar    1  UNL1        0.0080
     12 C         141.0383  140.6038  160.9347 C.ar    1  UNL1        0.0155
     13 C         142.3287  142.5422  163.5926 C.3     1  UNL1        0.0840
     14 C         141.2389  142.0157  164.4788 C.3     1  UNL1        0.0376
     15 C         141.4652  141.8984  165.9569 C.3     1  UNL1        0.0741
     16 N         142.7813  142.3076  166.5490 N.3     1  UNL1       -0.2688
     17 C         143.8711  142.8340  165.6628 C.3     1  UNL1        0.0741
     18 C         143.6447  142.9514  164.1846 C.3     1  UNL1        0.0376
     19 C         143.0077  142.1903  168.0271 C.3     1  UNL1        0.0992
     20 C         141.8515  141.9199  168.9438 C.ar    1  UNL1       -0.0031
     21 C         141.5146  140.5103  169.3305 C.ar    1  UNL1        0.0178
     22 C         140.3585  140.2399  170.2471 C.ar    1  UNL1        0.0986
     23 N         139.5392  141.3792  170.7771 N.ar    1  UNL1       -0.2423
     24 C         139.8761  142.7888  170.3905 C.ar    1  UNL1        0.0986
     25 C         141.0322  143.0592  169.4738 C.ar    1  UNL1        0.0178
     26 C         141.1503  145.4287  159.4357 C.3     1  UNL1        0.1177
     27 C         141.1243  145.5953  157.9452 C.ar    1  UNL1       -0.0025
     28 C         142.2047  144.9840  157.1032 C.ar    1  UNL1       -0.0026
     29 C         142.1786  145.1506  155.6128 C.ar    1  UNL1       -0.0003
     30 C         141.0722  145.9286  154.9643 C.ar    1  UNL1       -0.0000
     31 C         139.9917  146.5399  155.8063 C.ar    1  UNL1       -0.0003
     32 C         140.0178  146.3732  157.2967 C.ar    1  UNL1       -0.0026
@<TRIPOS>BOND
     1     1     2    2
     2     2     3   am
     3     3    26    1
     4    26    27    1
     5    27    28   ar
     6    28    29   ar
     7    29    30   ar
     8    30    31   ar
     9    31    32   ar
    10     2     4   am
    11     4     6    1
    12     6     7   ar
    13     7     8   ar
    14     8     9   ar
    15     9    10    1
    16     9    11   ar
    17    11    12   ar
    18     4    13    1
    19    13    14    1
    20    14    15    1
    21    15    16    1
    22    16    19    1
    23    19    20    1
    24    20    21   ar
    25    21    22   ar
    26    22    23   ar
    27    23    24   ar
    28    24    25   ar
    29    16    17    1
    30    17    18    1
    31    32    27   ar
    32    12     6   ar
    33    18    13    1
    34    25    20   ar
    35     3     5    1
@<TRIPOS>MOLECULE
*****
 32 35 0 0 0
SMALL
GASTEIGER

@<TRIPOS>ATOM
      1 O         139.3212  137.6453  161.0837 O.2     1  UNL1       -0.2522
      2 C         139.4039  139.1253  160.8540 C.2     1  UNL1        0.3079
      3 N         138.8040  140.0735  161.8496 N.am    1  UNL1       -0.2844
      4 N         140.0864  139.6571  159.6287 N.am    1  UNL1       -0.2448
      5 H         138.8582  141.0448  161.6988 H       1  UNL1        0.1513
      6 C         140.1691  141.1371  159.3990 C.ar    1  UNL1        0.0552
      7 C         141.2827  141.9306  160.0153 C.ar    1  UNL1        0.0155
      8 C         141.3654  143.4106  159.7855 C.ar    1  UNL1        0.0080
      9 C         140.3344  144.0970  158.9395 C.ar    1  UNL1        0.0346
     10 BR        140.4171  145.5770  158.7097 Br      1  UNL1       -0.0490
     11 C         139.2207  143.3034  158.3232 C.ar    1  UNL1        0.0080
     12 C         139.1381  141.8234  158.5529 C.ar    1  UNL1        0.0155
     13 C         140.6862  138.7089  158.6332 C.3     1  UNL1        0.0840
     14 C         139.8455  138.1613  157.5181 C.3     1  UNL1        0.0376
     15 C         140.4453  137.2131  156.5226 C.3     1  UNL1        0.0741
     16 N         141.8859  136.8124  156.6421 N.3     1  UNL1       -0.2688
     17 C         142.7266  137.3600  157.7572 C.3     1  UNL1        0.0741
     18 C         142.1268  138.3082  158.7527 C.3     1  UNL1        0.0376
     19 C         142.4857  135.8642  155.6466 C.3     1  UNL1        0.0992
     20 C         142.6008  134.4052  155.9755 C.ar    1  UNL1       -0.0031
     21 C         141.6496  133.4209  155.3620 C.ar    1  UNL1        0.0178
     22 C         141.7647  131.9619  155.6909 C.ar    1  UNL1        0.0986
     23 N         142.8308  131.4872  156.6332 N.ar    1  UNL1       -0.2423
     24 C         143.7820  132.4716  157.2467 C.ar    1  UNL1        0.0986
     25 C         143.6669  133.9306  156.9179 C.ar    1  UNL1        0.0178
     26 C         138.1215  139.5417  163.0748 C.3     1  UNL1        0.1177
     27 C         138.6384  139.9002  164.4366 C.ar    1  UNL1       -0.0025
     28 C         139.4575  141.1426  164.6248 C.ar    1  UNL1       -0.0026
     29 C         139.9744  141.5011  165.9865 C.ar    1  UNL1       -0.0003
     30 C         139.6722  140.6171  167.1600 C.ar    1  UNL1       -0.0000
     31 C         138.8532  139.3746  166.9719 C.ar    1  UNL1       -0.0003
     32 C         138.3363  139.0162  165.6102 C.ar    1  UNL1       -0.0026
@<TRIPOS>BOND
     1     1     2    2
     2     2     3   am
     3     3    26    1
     4    26    27    1
     5    27    28   ar
     6    28    29   ar
     7    29    30   ar
     8    30    31   ar
     9    31    32   ar
    10     2     4   am
    11     4     6    1
    12     6     7   ar
    13     7     8   ar
    14     8     9   ar
    15     9    10    1
    16     9    11   ar
    17    11    12   ar
    18     4    13    1
    19    13    14    1
    20    14    15    1
    21    15    16    1
    22    16    19    1
    23    19    20    1
    24    20    21   ar
    25    21    22   ar
    26    22    23   ar
    27    23    24   ar
    28    24    25   ar
    29    16    17    1
    30    17    18    1
    31    32    27   ar
    32    12     6   ar
    33    18    13    1
    34    25    20   ar
    35     3     5    1
@<TRIPOS>MOLECULE
*****
 32 35 0 0 0
SMALL
GASTEIGER

@<TRIPOS>ATOM
      1 O         139.5244  138.3952  160.3846 O.2     1  UNL1       -0.2522
      2 C         139.0202  139.5763  159.6096 C.2     1  UNL1        0.3079
      3 N         138.1166  140.5757  160.2690 N.am    1  UNL1       -0.2844
      4 N         139.4194  139.7579  158.1752 N.am    1  UNL1       -0.2448
      5 H         137.7856  141.3509  159.7603 H       1  UNL1        0.1513
      6 C         138.9152  140.9390  157.4001 C.ar    1  UNL1        0.0552
      7 C         139.7274  142.1986  157.3396 C.ar    1  UNL1        0.0155
      8 C         139.2232  143.3797  156.5645 C.ar    1  UNL1        0.0080
      9 C         137.9067  143.3012  155.8500 C.ar    1  UNL1        0.0346
     10 BR        137.4025  144.4823  155.0749 Br      1  UNL1       -0.0490
     11 C         137.0945  142.0417  155.9104 C.ar    1  UNL1        0.0080
     12 C         137.5987  140.8606  156.6855 C.ar    1  UNL1        0.0155
     13 C         140.3230  138.7585  157.5159 C.3     1  UNL1        0.0840
     14 C         139.7464  137.7027  156.6198 C.3     1  UNL1        0.0376
     15 C         140.6499  136.7032  155.9605 C.3     1  UNL1        0.0741
     16 N         142.1300  136.7596  156.1972 N.3     1  UNL1       -0.2688
     17 C         142.7066  137.8153  157.0931 C.3     1  UNL1        0.0741
     18 C         141.8031  138.8148  157.7525 C.3     1  UNL1        0.0376
     19 C         143.0335  135.7601  155.5379 C.3     1  UNL1        0.0992
     20 C         142.9697  134.3149  155.9347 C.ar    1  UNL1       -0.0031
     21 C         141.9723  133.4022  155.2851 C.ar    1  UNL1        0.0178
     22 C         141.9084  131.9571  155.6819 C.ar    1  UNL1        0.0986
     23 N         142.8420  131.4246  156.7284 N.ar    1  UNL1       -0.2423
     24 C         143.8394  132.3374  157.3780 C.ar    1  UNL1        0.0986
     25 C         143.9033  133.7826  156.9811 C.ar    1  UNL1        0.0178
     26 C         137.7173  140.3940  161.7033 C.3     1  UNL1        0.1177
     27 C         137.9335  141.5044  162.6885 C.ar    1  UNL1       -0.0025
     28 C         137.7047  142.9282  162.2758 C.ar    1  UNL1       -0.0026
     29 C         137.9209  144.0385  163.2610 C.ar    1  UNL1       -0.0003
     30 C         138.3658  143.7250  164.6587 C.ar    1  UNL1       -0.0000
     31 C         138.5946  142.3012  165.0714 C.ar    1  UNL1       -0.0003
     32 C         138.3784  141.1909  164.0862 C.ar    1  UNL1       -0.0026
@<TRIPOS>BOND
     1     1     2    2
     2     2     3   am
     3     3    26    1
     4    26    27    1
     5    27    28   ar
     6    28    29   ar
     7    29    30   ar
     8    30    31   ar
     9    31    32   ar
    10     2     4   am
    11     4     6    1
    12     6     7   ar
    13     7     8   ar
    14     8     9   ar
    15     9    10    1
    16     9    11   ar
    17    11    12   ar
    18     4    13    1
    19    13    14    1
    20    14    15    1
    21    15    16    1
    22    16    19    1
    23    19    20    1
    24    20    21   ar
    25    21    22   ar
    26    22    23   ar
    27    23    24   ar
    28    24    25   ar
    29    16    17    1
    30    17    18    1
    31    32    27   ar
    32    12     6   ar
    33    18    13    1
    34    25    20   ar
    35     3     5    1
