@<TRIPOS>MOLECULE
*****
 34 38 0 0 0
SMALL
GASTEIGER

@<TRIPOS>ATOM
      1 C         144.6203  137.9982  155.1818 C.3     1  UNL1        0.0719
      2 C         143.3639  138.0294  156.0008 C.ar    1  UNL1        0.1230
      3 N         143.3475  138.7387  157.3224 N.ar    1  UNL1       -0.2306
      4 C         142.0911  138.7698  158.1413 C.ar    1  UNL1        0.1051
      5 C         142.0747  139.4791  159.4629 C.ar    1  UNL1        0.0256
      6 C         140.8183  139.5102  160.2817 C.ar    1  UNL1        0.0597
      7 C         139.5784  138.8320  159.7790 C.ar    1  UNL1        0.2299
      8 N         139.5948  138.1228  158.4574 N.ar    1  UNL1       -0.2050
      9 C         140.8512  138.0917  157.6386 C.ar    1  UNL1        0.1579
     10 C         140.8676  137.3824  156.3169 C.ar    1  UNL1        0.2810
     11 O         139.6277  136.7042  155.8142 O.2     1  UNL1       -0.2652
     12 N         142.1240  137.3512  155.4981 N.ar    1  UNL1       -0.2827
     13 O         138.3220  138.8632  160.5980 O.3     1  UNL1       -0.4346
     14 C         138.3996  139.0564  162.0834 C.ar    1  UNL1        0.1648
     15 C         138.6629  137.8828  162.9797 C.ar    1  UNL1        0.0414
     16 C         138.7405  138.0761  164.4652 C.ar    1  UNL1        0.0329
     17 C         138.5548  139.4429  165.0544 C.ar    1  UNL1        0.1417
     18 F         138.6323  139.6362  166.5398 F       1  UNL1       -0.2041
     19 C         138.2914  140.6166  164.1581 C.ar    1  UNL1        0.0482
     20 C         138.1057  141.9834  164.7473 C.ar    1  UNL1        0.0054
     21 C         137.8423  143.1570  163.8510 C.ar    1  UNL1        0.0208
     22 C         137.7648  142.9638  162.3656 C.ar    1  UNL1        0.0989
     23 N         137.9505  141.5969  161.7764 N.ar    1  UNL1       -0.2407
     24 C         138.2138  140.4233  162.6727 C.ar    1  UNL1        0.1179
     25 C         142.1405  136.6419  154.1764 C.3     1  UNL1        0.1115
     26 C         142.3847  135.1630  154.1220 C.3     1  UNL1        0.0388
     27 C         141.8230  134.3511  152.9926 C.3     1  UNL1        0.0048
     28 C         142.0673  132.8721  152.9381 C.3     1  UNL1        0.0174
     29 C         142.8733  132.2050  154.0131 C.3     1  UNL1        0.0720
     30 N         143.4349  133.0169  155.1424 N.3     1  UNL1       -0.2739
     31 C         143.1907  134.4959  155.1968 C.3     1  UNL1        0.0739
     32 C         144.2409  132.3498  156.2172 C.3     1  UNL1        0.0576
     33 C         144.8333  130.9927  155.9775 C.3     1  UNL1        0.0173
     34 C         144.4544  133.0397  157.5320 C.3     1  UNL1        0.0173
@<TRIPOS>BOND
     1     1     2    1
     2     2     3   ar
     3     3     4   ar
     4     4     5   ar
     5     5     6   ar
     6     6     7   ar
     7     7    13    1
     8    13    14    1
     9    14    15   ar
    10    15    16   ar
    11    16    17   ar
    12    17    18    1
    13    17    19   ar
    14    19    20   ar
    15    20    21   ar
    16    21    22   ar
    17    22    23   ar
    18    23    24   ar
    19     7     8   ar
    20     8     9   ar
    21     9    10   ar
    22    10    11    2
    23    10    12   ar
    24    12    25    1
    25    26    25    1
    26    26    27    1
    27    27    28    1
    28    28    29    1
    29    29    30    1
    30    30    32    1
    31    32    33    1
    32    32    34    1
    33    30    31    1
    34    12     2   ar
    35    31    26    1
    36     9     4   ar
    37    24    14   ar
    38    24    19   ar
@<TRIPOS>MOLECULE
*****
 34 38 0 0 0
SMALL
GASTEIGER

@<TRIPOS>ATOM
      1 C         144.5477  137.6917  155.2710 C.3     1  UNL1        0.0719
      2 C         143.2839  137.7974  156.0720 C.ar    1  UNL1        0.1230
      3 N         143.2884  138.5156  157.3889 N.ar    1  UNL1       -0.2306
      4 C         142.0245  138.6213  158.1899 C.ar    1  UNL1        0.1051
      5 C         142.0290  139.3395  159.5067 C.ar    1  UNL1        0.0256
      6 C         140.7652  139.4451  160.3077 C.ar    1  UNL1        0.0597
      7 C         139.4969  138.8326  159.7918 C.ar    1  UNL1        0.2299
      8 N         139.4924  138.1144  158.4749 N.ar    1  UNL1       -0.2050
      9 C         140.7562  138.0088  157.6740 C.ar    1  UNL1        0.1579
     10 C         140.7517  137.2905  156.3570 C.ar    1  UNL1        0.2810
     11 O         139.4834  136.6780  155.8411 O.2     1  UNL1       -0.2652
     12 N         142.0155  137.1849  155.5561 N.ar    1  UNL1       -0.2827
     13 O         138.2330  138.9383  160.5928 O.3     1  UNL1       -0.4346
     14 C         138.1323  139.9380  161.7065 C.ar    1  UNL1        0.1648
     15 C         137.8265  141.3742  161.3998 C.ar    1  UNL1        0.0414
     16 C         137.7258  142.3739  162.5136 C.ar    1  UNL1        0.0329
     17 C         137.9309  141.9375  163.9339 C.ar    1  UNL1        0.1417
     18 F         137.8302  142.9373  165.0476 F       1  UNL1       -0.2041
     19 C         138.2368  140.5014  164.2406 C.ar    1  UNL1        0.0482
     20 C         138.4419  140.0650  165.6610 C.ar    1  UNL1        0.0054
     21 C         138.7477  138.6289  165.9676 C.ar    1  UNL1        0.0208
     22 C         138.8484  137.6292  164.8539 C.ar    1  UNL1        0.0989
     23 N         138.6433  138.0656  163.4336 N.ar    1  UNL1       -0.2407
     24 C         138.3375  139.5017  163.1269 C.ar    1  UNL1        0.1179
     25 C         142.0111  136.4666  154.2392 C.3     1  UNL1        0.1115
     26 C         142.3190  134.9996  154.1840 C.3     1  UNL1        0.0388
     27 C         141.8122  134.1694  153.0420 C.3     1  UNL1        0.0048
     28 C         142.1202  132.7024  152.9868 C.3     1  UNL1        0.0174
     29 C         142.9349  132.0656  154.0735 C.3     1  UNL1        0.0720
     30 N         143.4416  132.8959  155.2153 N.3     1  UNL1       -0.2739
     31 C         143.1337  134.3629  155.2706 C.3     1  UNL1        0.0739
     32 C         144.2563  132.2591  156.3020 C.3     1  UNL1        0.0576
     33 C         144.4760  132.9834  157.5970 C.3     1  UNL1        0.0173
     34 C         144.8514  130.8980  156.0936 C.3     1  UNL1        0.0173
@<TRIPOS>BOND
     1     1     2    1
     2     2     3   ar
     3     3     4   ar
     4     4     5   ar
     5     5     6   ar
     6     6     7   ar
     7     7    13    1
     8    13    14    1
     9    14    15   ar
    10    15    16   ar
    11    16    17   ar
    12    17    18    1
    13    17    19   ar
    14    19    20   ar
    15    20    21   ar
    16    21    22   ar
    17    22    23   ar
    18    23    24   ar
    19     7     8   ar
    20     8     9   ar
    21     9    10   ar
    22    10    11    2
    23    10    12   ar
    24    12    25    1
    25    26    25    1
    26    26    27    1
    27    27    28    1
    28    28    29    1
    29    29    30    1
    30    30    32    1
    31    32    33    1
    32    32    34    1
    33    30    31    1
    34    12     2   ar
    35    31    26    1
    36     9     4   ar
    37    24    14   ar
    38    24    19   ar
@<TRIPOS>MOLECULE
*****
 34 38 0 0 0
SMALL
GASTEIGER

@<TRIPOS>ATOM
      1 C         143.6337  145.1290  163.9351 C.3     1  UNL1        0.0719
      2 C         143.6833  143.8915  163.0887 C.ar    1  UNL1        0.1230
      3 N         143.5666  143.9979  161.5971 N.ar    1  UNL1       -0.2306
      4 C         143.6163  142.7604  160.7507 C.ar    1  UNL1        0.1051
      5 C         143.4996  142.8668  159.2591 C.ar    1  UNL1        0.0256
      6 C         143.5492  141.6294  158.4128 C.ar    1  UNL1        0.0597
      7 C         143.7155  140.2856  159.0581 C.ar    1  UNL1        0.2299
      8 N         143.8322  140.1792  160.5497 N.ar    1  UNL1       -0.2050
      9 C         143.7826  141.4166  161.3960 C.ar    1  UNL1        0.1579
     10 C         143.8992  141.3102  162.8878 C.ar    1  UNL1        0.2810
     11 O         144.0655  139.9664  163.5331 O.2     1  UNL1       -0.2652
     12 N         143.8496  142.5477  163.7341 N.ar    1  UNL1       -0.2827
     13 O         143.7651  139.0481  158.2117 O.3     1  UNL1       -0.4346
     14 C         142.5000  138.4772  157.6431 C.ar    1  UNL1        0.1648
     15 C         141.1734  139.0600  158.0309 C.ar    1  UNL1        0.0414
     16 C         139.9082  138.4890  157.4622 C.ar    1  UNL1        0.0329
     17 C         139.9697  137.3352  156.5058 C.ar    1  UNL1        0.1417
     18 F         138.7045  136.7643  155.9371 F       1  UNL1       -0.2041
     19 C         141.2963  136.7524  156.1179 C.ar    1  UNL1        0.0482
     20 C         141.3577  135.5986  155.1614 C.ar    1  UNL1        0.0054
     21 C         142.6843  135.0157  154.7736 C.ar    1  UNL1        0.0208
     22 C         143.9494  135.5867  155.3422 C.ar    1  UNL1        0.0989
     23 N         143.8880  136.7405  156.2987 N.ar    1  UNL1       -0.2407
     24 C         142.5614  137.3233  156.6865 C.ar    1  UNL1        0.1179
     25 C         143.9663  142.4413  165.2258 C.3     1  UNL1        0.1115
     26 C         142.7577  142.1120  166.0510 C.3     1  UNL1        0.0388
     27 C         142.8365  142.1586  167.5482 C.3     1  UNL1        0.0048
     28 C         141.6279  141.8292  168.3734 C.3     1  UNL1        0.0174
     29 C         140.3406  141.4533  167.7014 C.3     1  UNL1        0.0720
     30 N         140.2619  141.4067  166.2042 N.3     1  UNL1       -0.2739
     31 C         141.4705  141.7361  165.3790 C.3     1  UNL1        0.0739
     32 C         138.9746  141.0308  165.5322 C.3     1  UNL1        0.0576
     33 C         138.3500  139.6941  165.8024 C.3     1  UNL1        0.0173
     34 C         138.3119  141.9917  164.5901 C.3     1  UNL1        0.0173
@<TRIPOS>BOND
     1     1     2    1
     2     2     3   ar
     3     3     4   ar
     4     4     5   ar
     5     5     6   ar
     6     6     7   ar
     7     7    13    1
     8    13    14    1
     9    14    15   ar
    10    15    16   ar
    11    16    17   ar
    12    17    18    1
    13    17    19   ar
    14    19    20   ar
    15    20    21   ar
    16    21    22   ar
    17    22    23   ar
    18    23    24   ar
    19     7     8   ar
    20     8     9   ar
    21     9    10   ar
    22    10    11    2
    23    10    12   ar
    24    12    25    1
    25    26    25    1
    26    26    27    1
    27    27    28    1
    28    28    29    1
    29    29    30    1
    30    30    32    1
    31    32    33    1
    32    32    34    1
    33    30    31    1
    34    12     2   ar
    35    31    26    1
    36     9     4   ar
    37    24    14   ar
    38    24    19   ar
@<TRIPOS>MOLECULE
*****
 34 38 0 0 0
SMALL
GASTEIGER

@<TRIPOS>ATOM
      1 C         139.1601  136.8942  155.3069 C.3     1  UNL1        0.0719
      2 C         140.2574  137.3883  156.2024 C.ar    1  UNL1        0.1230
      3 N         139.9254  137.9687  157.5451 N.ar    1  UNL1       -0.2306
      4 C         141.0227  138.4628  158.4407 C.ar    1  UNL1        0.1051
      5 C         140.6908  139.0432  159.7834 C.ar    1  UNL1        0.0256
      6 C         141.7880  139.5373  160.6788 C.ar    1  UNL1        0.0597
      7 C         143.2172  139.4510  160.2316 C.ar    1  UNL1        0.2299
      8 N         143.5491  138.8706  158.8889 N.ar    1  UNL1       -0.2050
      9 C         142.4519  138.3765  157.9934 C.ar    1  UNL1        0.1579
     10 C         142.7838  137.7961  156.6506 C.ar    1  UNL1        0.2810
     11 O         144.2129  137.7099  156.2033 O.2     1  UNL1       -0.2652
     12 N         141.6865  137.3021  155.7551 N.ar    1  UNL1       -0.2827
     13 O         144.3145  139.9451  161.1271 O.3     1  UNL1       -0.4346
     14 C         144.0416  140.1928  162.5811 C.ar    1  UNL1        0.1648
     15 C         143.8290  139.0360  163.5120 C.ar    1  UNL1        0.0414
     16 C         143.5561  139.2837  164.9661 C.ar    1  UNL1        0.0329
     17 C         143.4957  140.6882  165.4892 C.ar    1  UNL1        0.1417
     18 F         143.2228  140.9359  166.9431 F       1  UNL1       -0.2041
     19 C         143.7083  141.8450  164.5582 C.ar    1  UNL1        0.0482
     20 C         143.6479  143.2496  165.0813 C.ar    1  UNL1        0.0054
     21 C         143.8605  144.4064  164.1504 C.ar    1  UNL1        0.0208
     22 C         144.1334  144.1587  162.6964 C.ar    1  UNL1        0.0989
     23 N         144.1938  142.7542  162.1734 N.ar    1  UNL1       -0.2407
     24 C         143.9812  141.5974  163.1043 C.ar    1  UNL1        0.1179
     25 C         142.0184  136.7217  154.4123 C.3     1  UNL1        0.1115
     26 C         142.2941  135.2534  154.2773 C.3     1  UNL1        0.0388
     27 C         141.7406  134.4906  153.1103 C.3     1  UNL1        0.0048
     28 C         142.0163  133.0223  152.9752 C.3     1  UNL1        0.0174
     29 C         142.8455  132.3169  154.0072 C.3     1  UNL1        0.0720
     30 N         143.3989  133.0797  155.1742 N.3     1  UNL1       -0.2739
     31 C         143.1232  134.5480  155.3092 C.3     1  UNL1        0.0739
     32 C         144.2280  132.3743  156.2061 C.3     1  UNL1        0.0576
     33 C         144.4121  132.9831  157.5645 C.3     1  UNL1        0.0173
     34 C         144.8731  131.0600  155.8795 C.3     1  UNL1        0.0173
@<TRIPOS>BOND
     1     1     2    1
     2     2     3   ar
     3     3     4   ar
     4     4     5   ar
     5     5     6   ar
     6     6     7   ar
     7     7    13    1
     8    13    14    1
     9    14    15   ar
    10    15    16   ar
    11    16    17   ar
    12    17    18    1
    13    17    19   ar
    14    19    20   ar
    15    20    21   ar
    16    21    22   ar
    17    22    23   ar
    18    23    24   ar
    19     7     8   ar
    20     8     9   ar
    21     9    10   ar
    22    10    11    2
    23    10    12   ar
    24    12    25    1
    25    26    25    1
    26    26    27    1
    27    27    28    1
    28    28    29    1
    29    29    30    1
    30    30    32    1
    31    32    33    1
    32    32    34    1
    33    30    31    1
    34    12     2   ar
    35    31    26    1
    36     9     4   ar
    37    24    14   ar
    38    24    19   ar
@<TRIPOS>MOLECULE
*****
 34 38 0 0 0
SMALL
GASTEIGER

@<TRIPOS>ATOM
      1 C         143.5187  143.3401  162.2845 C.3     1  UNL1        0.0719
      2 C         142.5692  143.9894  161.3218 C.ar    1  UNL1        0.1230
      3 N         142.8432  143.9374  159.8480 N.ar    1  UNL1       -0.2306
      4 C         141.8936  144.5868  158.8852 C.ar    1  UNL1        0.1051
      5 C         142.1676  144.5348  157.4114 C.ar    1  UNL1        0.0256
      6 C         141.2181  145.1841  156.4487 C.ar    1  UNL1        0.0597
      7 C         139.9947  145.8855  156.9599 C.ar    1  UNL1        0.2299
      8 N         139.7207  145.9375  158.4337 N.ar    1  UNL1       -0.2050
      9 C         140.6702  145.2882  159.3963 C.ar    1  UNL1        0.1579
     10 C         140.3963  145.3402  160.8703 C.ar    1  UNL1        0.2810
     11 O         139.1728  146.0415  161.3814 O.2     1  UNL1       -0.2652
     12 N         141.3458  144.6908  161.8329 N.ar    1  UNL1       -0.2827
     13 O         139.0452  146.5349  155.9971 O.3     1  UNL1       -0.4346
     14 C         139.0376  148.0268  155.8423 C.ar    1  UNL1        0.1648
     15 C         138.4073  148.8871  156.8972 C.ar    1  UNL1        0.0414
     16 C         138.3997  150.3791  156.7424 C.ar    1  UNL1        0.0329
     17 C         139.0224  151.0108  155.5328 C.ar    1  UNL1        0.1417
     18 F         139.0148  152.5027  155.3780 F       1  UNL1       -0.2041
     19 C         139.6527  150.1505  154.4780 C.ar    1  UNL1        0.0482
     20 C         140.2754  150.7822  153.2684 C.ar    1  UNL1        0.0054
     21 C         140.9057  149.9220  152.2135 C.ar    1  UNL1        0.0208
     22 C         140.9133  148.4300  152.3683 C.ar    1  UNL1        0.0989
     23 N         140.2906  147.7983  153.5779 N.ar    1  UNL1       -0.2407
     24 C         139.6603  148.6586  154.6327 C.ar    1  UNL1        0.1179
     25 C         141.0718  144.7428  163.3068 C.3     1  UNL1        0.1115
     26 C         140.3201  143.6268  163.9698 C.3     1  UNL1        0.0388
     27 C         139.2222  142.9198  163.2316 C.3     1  UNL1        0.0048
     28 C         138.4705  141.8038  163.8946 C.3     1  UNL1        0.0174
     29 C         138.8167  141.3948  165.2957 C.3     1  UNL1        0.0720
     30 N         139.9146  142.1018  166.0337 N.3     1  UNL1       -0.2739
     31 C         140.6663  143.2178  165.3708 C.3     1  UNL1        0.0739
     32 C         140.2608  141.6928  167.4347 C.3     1  UNL1        0.0576
     33 C         140.7333  142.7197  168.4207 C.3     1  UNL1        0.0173
     34 C         140.1345  140.2569  167.8497 C.3     1  UNL1        0.0173
@<TRIPOS>BOND
     1     1     2    1
     2     2     3   ar
     3     3     4   ar
     4     4     5   ar
     5     5     6   ar
     6     6     7   ar
     7     7    13    1
     8    13    14    1
     9    14    15   ar
    10    15    16   ar
    11    16    17   ar
    12    17    18    1
    13    17    19   ar
    14    19    20   ar
    15    20    21   ar
    16    21    22   ar
    17    22    23   ar
    18    23    24   ar
    19     7     8   ar
    20     8     9   ar
    21     9    10   ar
    22    10    11    2
    23    10    12   ar
    24    12    25    1
    25    26    25    1
    26    26    27    1
    27    27    28    1
    28    28    29    1
    29    29    30    1
    30    30    32    1
    31    32    33    1
    32    32    34    1
    33    30    31    1
    34    12     2   ar
    35    31    26    1
    36     9     4   ar
    37    24    14   ar
    38    24    19   ar
@<TRIPOS>MOLECULE
*****
 34 38 0 0 0
SMALL
GASTEIGER

@<TRIPOS>ATOM
      1 C         138.6941  140.4816  159.0558 C.3     1  UNL1        0.0719
      2 C         139.5782  139.4433  158.4310 C.ar    1  UNL1        0.1230
      3 N         139.1344  138.7295  157.1887 N.ar    1  UNL1       -0.2306
      4 C         140.0185  137.6911  156.5639 C.ar    1  UNL1        0.1051
      5 C         139.5747  136.9773  155.3216 C.ar    1  UNL1        0.0256
      6 C         140.4587  135.9390  154.6968 C.ar    1  UNL1        0.0597
      7 C         141.7866  135.6145  155.3145 C.ar    1  UNL1        0.2299
      8 N         142.2305  136.3284  156.5568 N.ar    1  UNL1       -0.2050
      9 C         141.3464  137.3667  157.1815 C.ar    1  UNL1        0.1579
     10 C         141.7902  138.0806  158.4239 C.ar    1  UNL1        0.2810
     11 O         143.1181  137.7561  159.0415 O.2     1  UNL1       -0.2652
     12 N         140.9061  139.1189  159.0486 N.ar    1  UNL1       -0.2827
     13 O         142.6707  134.5762  154.6897 O.3     1  UNL1       -0.4346
     14 C         142.4110  133.1204  154.9409 C.ar    1  UNL1        0.1648
     15 C         141.3527  132.4013  154.1581 C.ar    1  UNL1        0.0414
     16 C         141.0930  130.9455  154.4094 C.ar    1  UNL1        0.0329
     17 C         141.8916  130.2087  155.4435 C.ar    1  UNL1        0.1417
     18 F         141.6319  128.7530  155.6947 F       1  UNL1       -0.2041
     19 C         142.9500  130.9278  156.2263 C.ar    1  UNL1        0.0482
     20 C         143.7486  130.1911  157.2604 C.ar    1  UNL1        0.0054
     21 C         144.8070  130.9102  158.0432 C.ar    1  UNL1        0.0208
     22 C         145.0667  132.3660  157.7919 C.ar    1  UNL1        0.0989
     23 N         144.2681  133.1027  156.7579 N.ar    1  UNL1       -0.2407
     24 C         143.2097  132.3836  155.9750 C.ar    1  UNL1        0.1179
     25 C         141.3499  139.8328  160.2910 C.3     1  UNL1        0.1115
     26 C         141.3853  139.1049  161.6021 C.3     1  UNL1        0.0388
     27 C         140.2903  138.1426  161.9556 C.3     1  UNL1        0.0048
     28 C         140.3257  137.4147  163.2666 C.3     1  UNL1        0.0174
     29 C         141.4563  137.6491  164.2243 C.3     1  UNL1        0.0720
     30 N         142.5513  138.6114  163.8708 N.3     1  UNL1       -0.2739
     31 C         142.5158  139.3393  162.5597 C.3     1  UNL1        0.0739
     32 C         143.6818  138.8458  164.8284 C.3     1  UNL1        0.0576
     33 C         144.9354  139.5217  164.3578 C.3     1  UNL1        0.0173
     34 C         143.5586  138.4042  166.2567 C.3     1  UNL1        0.0173
@<TRIPOS>BOND
     1     1     2    1
     2     2     3   ar
     3     3     4   ar
     4     4     5   ar
     5     5     6   ar
     6     6     7   ar
     7     7    13    1
     8    13    14    1
     9    14    15   ar
    10    15    16   ar
    11    16    17   ar
    12    17    18    1
    13    17    19   ar
    14    19    20   ar
    15    20    21   ar
    16    21    22   ar
    17    22    23   ar
    18    23    24   ar
    19     7     8   ar
    20     8     9   ar
    21     9    10   ar
    22    10    11    2
    23    10    12   ar
    24    12    25    1
    25    26    25    1
    26    26    27    1
    27    27    28    1
    28    28    29    1
    29    29    30    1
    30    30    32    1
    31    32    33    1
    32    32    34    1
    33    30    31    1
    34    12     2   ar
    35    31    26    1
    36     9     4   ar
    37    24    14   ar
    38    24    19   ar
@<TRIPOS>MOLECULE
*****
 34 38 0 0 0
SMALL
GASTEIGER

@<TRIPOS>ATOM
      1 C         138.8257  138.5176  164.1078 C.3     1  UNL1        0.0719
      2 C         139.7975  138.3937  162.9719 C.ar    1  UNL1        0.1230
      3 N         139.3097  138.4725  161.5556 N.ar    1  UNL1       -0.2306
      4 C         140.2815  138.3486  160.4197 C.ar    1  UNL1        0.1051
      5 C         139.7937  138.4274  159.0034 C.ar    1  UNL1        0.0256
      6 C         140.7655  138.3035  157.8676 C.ar    1  UNL1        0.0597
      7 C         142.2251  138.1009  158.1480 C.ar    1  UNL1        0.2299
      8 N         142.7129  138.0221  159.5642 N.ar    1  UNL1       -0.2050
      9 C         141.7411  138.1460  160.7001 C.ar    1  UNL1        0.1579
     10 C         142.2288  138.0672  162.1164 C.ar    1  UNL1        0.2810
     11 O         143.6884  137.8646  162.3968 O.2     1  UNL1       -0.2652
     12 N         141.2570  138.1911  163.2523 N.ar    1  UNL1       -0.2827
     13 O         143.1969  137.9770  157.0120 O.3     1  UNL1       -0.4346
     14 C         142.8603  137.1213  155.8269 C.ar    1  UNL1        0.1648
     15 C         142.4708  137.7602  154.5269 C.ar    1  UNL1        0.0414
     16 C         142.1342  136.9044  153.3418 C.ar    1  UNL1        0.0329
     17 C         142.1870  135.4098  153.4568 C.ar    1  UNL1        0.1417
     18 F         141.8504  134.5541  152.2718 F       1  UNL1       -0.2041
     19 C         142.5764  134.7709  154.7568 C.ar    1  UNL1        0.0482
     20 C         142.6293  133.2763  154.8718 C.ar    1  UNL1        0.0054
     21 C         143.0187  132.6373  156.1719 C.ar    1  UNL1        0.0208
     22 C         143.3553  133.4931  157.3569 C.ar    1  UNL1        0.0989
     23 N         143.3025  134.9877  157.2419 N.ar    1  UNL1       -0.2407
     24 C         142.9131  135.6266  155.9419 C.ar    1  UNL1        0.1179
     25 C         141.7448  138.1123  164.6686 C.3     1  UNL1        0.1115
     26 C         142.1468  139.3622  165.3940 C.3     1  UNL1        0.0388
     27 C         141.5552  139.6733  166.7369 C.3     1  UNL1        0.0048
     28 C         141.9573  140.9232  167.4622 C.3     1  UNL1        0.0174
     29 C         142.9509  141.8620  166.8447 C.3     1  UNL1        0.0720
     30 N         143.5425  141.5509  165.5018 N.3     1  UNL1       -0.2739
     31 C         143.1404  140.3010  164.7765 C.3     1  UNL1        0.0739
     32 C         144.5361  142.4897  164.8844 C.3     1  UNL1        0.0576
     33 C         145.5271  141.9791  163.8807 C.3     1  UNL1        0.0173
     34 C         144.5388  143.9392  165.2705 C.3     1  UNL1        0.0173
@<TRIPOS>BOND
     1     1     2    1
     2     2     3   ar
     3     3     4   ar
     4     4     5   ar
     5     5     6   ar
     6     6     7   ar
     7     7    13    1
     8    13    14    1
     9    14    15   ar
    10    15    16   ar
    11    16    17   ar
    12    17    18    1
    13    17    19   ar
    14    19    20   ar
    15    20    21   ar
    16    21    22   ar
    17    22    23   ar
    18    23    24   ar
    19     7     8   ar
    20     8     9   ar
    21     9    10   ar
    22    10    11    2
    23    10    12   ar
    24    12    25    1
    25    26    25    1
    26    26    27    1
    27    27    28    1
    28    28    29    1
    29    29    30    1
    30    30    32    1
    31    32    33    1
    32    32    34    1
    33    30    31    1
    34    12     2   ar
    35    31    26    1
    36     9     4   ar
    37    24    14   ar
    38    24    19   ar
@<TRIPOS>MOLECULE
*****
 34 38 0 0 0
SMALL
GASTEIGER

@<TRIPOS>ATOM
      1 C         138.9875  138.6169  164.2276 C.3     1  UNL1        0.0719
      2 C         139.9481  138.4898  163.0825 C.ar    1  UNL1        0.1230
      3 N         139.4415  138.5247  161.6711 N.ar    1  UNL1       -0.2306
      4 C         140.4021  138.3976  160.5261 C.ar    1  UNL1        0.1051
      5 C         139.8955  138.4325  159.1147 C.ar    1  UNL1        0.0256
      6 C         140.8561  138.3054  157.9697 C.ar    1  UNL1        0.0597
      7 C         142.3233  138.1433  158.2361 C.ar    1  UNL1        0.2299
      8 N         142.8299  138.1083  159.6475 N.ar    1  UNL1       -0.2050
      9 C         141.8693  138.2355  160.7925 C.ar    1  UNL1        0.1579
     10 C         142.3759  138.2005  162.2039 C.ar    1  UNL1        0.2810
     11 O         143.8432  138.0384  162.4703 O.2     1  UNL1       -0.2652
     12 N         141.4153  138.3277  163.3489 N.ar    1  UNL1       -0.2827
     13 O         143.2839  138.0161  157.0910 O.3     1  UNL1       -0.4346
     14 C         142.9151  137.1966  155.8901 C.ar    1  UNL1        0.1648
     15 C         142.5362  137.8748  154.6069 C.ar    1  UNL1        0.0414
     16 C         142.1673  137.0552  153.4059 C.ar    1  UNL1        0.0329
     17 C         142.1773  135.5575  153.4882 C.ar    1  UNL1        0.1417
     18 F         141.8084  134.7380  152.2872 F       1  UNL1       -0.2041
     19 C         142.5562  134.8794  154.7713 C.ar    1  UNL1        0.0482
     20 C         142.5662  133.3817  154.8536 C.ar    1  UNL1        0.0054
     21 C         142.9451  132.7035  156.1367 C.ar    1  UNL1        0.0208
     22 C         143.3139  133.5230  157.3377 C.ar    1  UNL1        0.0989
     23 N         143.3039  135.0207  157.2554 N.ar    1  UNL1       -0.2407
     24 C         142.9250  135.6989  155.9723 C.ar    1  UNL1        0.1179
     25 C         141.9219  138.2927  164.7604 C.3     1  UNL1        0.1115
     26 C         142.2835  139.5698  165.4593 C.3     1  UNL1        0.0388
     27 C         142.5096  140.8217  164.6644 C.3     1  UNL1        0.0048
     28 C         142.8712  142.0987  165.3633 C.3     1  UNL1        0.0174
     29 C         143.0067  142.1238  166.8570 C.3     1  UNL1        0.0720
     30 N         142.7807  140.8720  167.6518 N.3     1  UNL1       -0.2739
     31 C         142.4191  139.5949  166.9529 C.3     1  UNL1        0.0739
     32 C         142.9162  140.8971  169.1454 C.3     1  UNL1        0.0576
     33 C         143.4540  142.1191  169.8292 C.3     1  UNL1        0.0173
     34 C         142.5141  139.7003  169.9553 C.3     1  UNL1        0.0173
@<TRIPOS>BOND
     1     1     2    1
     2     2     3   ar
     3     3     4   ar
     4     4     5   ar
     5     5     6   ar
     6     6     7   ar
     7     7    13    1
     8    13    14    1
     9    14    15   ar
    10    15    16   ar
    11    16    17   ar
    12    17    18    1
    13    17    19   ar
    14    19    20   ar
    15    20    21   ar
    16    21    22   ar
    17    22    23   ar
    18    23    24   ar
    19     7     8   ar
    20     8     9   ar
    21     9    10   ar
    22    10    11    2
    23    10    12   ar
    24    12    25    1
    25    26    25    1
    26    26    27    1
    27    27    28    1
    28    28    29    1
    29    29    30    1
    30    30    32    1
    31    32    33    1
    32    32    34    1
    33    30    31    1
    34    12     2   ar
    35    31    26    1
    36     9     4   ar
    37    24    14   ar
    38    24    19   ar
@<TRIPOS>MOLECULE
*****
 34 38 0 0 0
SMALL
GASTEIGER

@<TRIPOS>ATOM
      1 C         143.7213  145.1811  163.9691 C.3     1  UNL1        0.0719
      2 C         143.7526  143.9242  163.1510 C.ar    1  UNL1        0.1230
      3 N         143.6376  143.9985  161.6573 N.ar    1  UNL1       -0.2306
      4 C         143.6689  142.7416  160.8391 C.ar    1  UNL1        0.1051
      5 C         143.5540  142.8160  159.3454 C.ar    1  UNL1        0.0256
      6 C         143.5853  141.5591  158.5274 C.ar    1  UNL1        0.0597
      7 C         143.7315  140.2279  159.2030 C.ar    1  UNL1        0.2299
      8 N         143.8465  140.1536  160.6967 N.ar    1  UNL1       -0.2050
      9 C         143.8152  141.4104  161.5148 C.ar    1  UNL1        0.1579
     10 C         143.9301  141.3361  163.0086 C.ar    1  UNL1        0.2810
     11 O         144.0764  140.0049  163.6842 O.2     1  UNL1       -0.2652
     12 N         143.8988  142.5930  163.8266 N.ar    1  UNL1       -0.2827
     13 O         143.7628  138.9710  158.3848 O.3     1  UNL1       -0.4346
     14 C         142.4969  138.4350  157.7848 C.ar    1  UNL1        0.1648
     15 C         141.1727  139.0139  158.1865 C.ar    1  UNL1        0.0414
     16 C         139.9068  138.4778  157.5864 C.ar    1  UNL1        0.0329
     17 C         139.9650  137.3629  156.5847 C.ar    1  UNL1        0.1417
     18 F         138.6991  136.8269  155.9847 F       1  UNL1       -0.2041
     19 C         141.2893  136.7839  156.1830 C.ar    1  UNL1        0.0482
     20 C         141.3475  135.6690  155.1813 C.ar    1  UNL1        0.0054
     21 C         142.6717  135.0901  154.7797 C.ar    1  UNL1        0.0208
     22 C         143.9377  135.6261  155.3797 C.ar    1  UNL1        0.0989
     23 N         143.8794  136.7410  156.3814 N.ar    1  UNL1       -0.2407
     24 C         142.5552  137.3200  156.7831 C.ar    1  UNL1        0.1179
     25 C         144.0138  142.5187  165.3204 C.3     1  UNL1        0.1115
     26 C         142.7954  142.2530  166.1541 C.3     1  UNL1        0.0388
     27 C         141.4312  142.5441  165.6025 C.3     1  UNL1        0.0048
     28 C         140.2128  142.2785  166.4362 C.3     1  UNL1        0.0174
     29 C         140.3587  141.7217  167.8214 C.3     1  UNL1        0.0720
     30 N         141.7229  141.4306  168.3729 N.3     1  UNL1       -0.2739
     31 C         142.9412  141.6963  167.5392 C.3     1  UNL1        0.0739
     32 C         141.8687  140.8739  169.7581 C.3     1  UNL1        0.0576
     33 C         141.5678  141.7358  170.9483 C.3     1  UNL1        0.0173
     34 C         142.3154  139.4553  169.9531 C.3     1  UNL1        0.0173
@<TRIPOS>BOND
     1     1     2    1
     2     2     3   ar
     3     3     4   ar
     4     4     5   ar
     5     5     6   ar
     6     6     7   ar
     7     7    13    1
     8    13    14    1
     9    14    15   ar
    10    15    16   ar
    11    16    17   ar
    12    17    18    1
    13    17    19   ar
    14    19    20   ar
    15    20    21   ar
    16    21    22   ar
    17    22    23   ar
    18    23    24   ar
    19     7     8   ar
    20     8     9   ar
    21     9    10   ar
    22    10    11    2
    23    10    12   ar
    24    12    25    1
    25    26    25    1
    26    26    27    1
    27    27    28    1
    28    28    29    1
    29    29    30    1
    30    30    32    1
    31    32    33    1
    32    32    34    1
    33    30    31    1
    34    12     2   ar
    35    31    26    1
    36     9     4   ar
    37    24    14   ar
    38    24    19   ar
