@<TRIPOS>MOLECULE
*****
 33 35 0 0 0
SMALL
GASTEIGER

@<TRIPOS>ATOM
      1 S         141.6502  144.5514  162.2931 S.O2    1  UNL1        0.0768
      2 O         142.4731  143.3465  161.9455 O.2     1  UNL1       -0.1498
      3 O         140.8273  145.7564  162.6407 O.2     1  UNL1       -0.1498
      4 N         141.1684  145.5824  158.4911 N.am    1  UNL1       -0.2671
      5 C         140.8964  145.0050  159.8485 C.2     1  UNL1        0.3231
      6 O         139.5983  144.3035  160.1187 O.2     1  UNL1       -0.2509
      7 N         141.9223  145.1290  160.9357 N.am    1  UNL1       -0.1690
      8 H         142.0204  146.0428  158.3138 H       1  UNL1        0.1565
      9 H         142.7743  145.5894  160.7584 H       1  UNL1        0.1781
     10 C         138.0905  145.2105  155.2295 C.ar    1  UNL1        0.1388
     11 C         138.5349  143.9925  155.9838 C.ar    1  UNL1        0.0382
     12 C         139.5609  144.1165  157.0710 C.ar    1  UNL1        0.0178
     13 C         140.1425  145.4584  157.4039 C.ar    1  UNL1        0.0518
     14 C         139.6981  146.6764  156.6496 C.ar    1  UNL1        0.0178
     15 C         138.6721  146.5524  155.5624 C.ar    1  UNL1        0.0382
     16 C         136.7741  143.7463  153.5345 C.3     1  UNL1        0.2525
     17 O         137.0646  145.0865  154.1423 O.3     1  UNL1       -0.4714
     18 C         141.3780  143.9740  163.6505 C.ar    1  UNL1        0.1255
     19 C         142.4513  143.2126  164.3706 C.ar    1  UNL1        0.0233
     20 C         142.1791  142.6351  165.7279 C.ar    1  UNL1        0.0383
     21 C         140.8338  142.8191  166.3652 C.ar    1  UNL1        0.1386
     22 C         139.7606  143.5804  165.6452 C.ar    1  UNL1        0.0383
     23 C         140.0327  144.1579  164.2878 C.ar    1  UNL1        0.0233
     24 O         140.5617  142.2416  167.7226 O.3     1  UNL1       -0.4754
     25 C         139.9557  140.8752  167.8486 C.3     1  UNL1        0.2068
     26 C         140.0805  139.8926  166.7222 C.3     1  UNL1        0.0646
     27 C         138.8584  139.2092  166.1843 C.3     1  UNL1        0.0759
     28 N         138.5744  139.2299  164.7116 N.3     1  UNL1       -0.2726
     29 C         138.8332  138.0083  163.8806 C.3     1  UNL1        0.0721
     30 C         138.5493  138.0290  162.4078 C.3     1  UNL1        0.0174
     31 C         138.0065  139.2714  161.7661 C.3     1  UNL1        0.0029
     32 C         137.7477  140.4931  162.5971 C.3     1  UNL1        0.0174
     33 C         138.0317  140.4724  164.0698 C.3     1  UNL1        0.0721
@<TRIPOS>BOND
     1    16    17    1
     2    17    10    1
     3    10    11   ar
     4    11    12   ar
     5    12    13   ar
     6    13     4    1
     7     4     5   am
     8     5     6    2
     9     5     7   am
    10     7     1    1
    11     1     2    2
    12     1     3    2
    13     1    18    1
    14    18    19   ar
    15    19    20   ar
    16    20    21   ar
    17    21    24    1
    18    24    25    1
    19    25    26    1
    20    26    27    1
    21    27    28    1
    22    28    29    1
    23    29    30    1
    24    30    31    1
    25    31    32    1
    26    32    33    1
    27    21    22   ar
    28    22    23   ar
    29    13    14   ar
    30    14    15   ar
    31    15    10   ar
    32    23    18   ar
    33    33    28    1
    34     4     8    1
    35     7     9    1
@<TRIPOS>MOLECULE
*****
 33 35 0 0 0
SMALL
GASTEIGER

@<TRIPOS>ATOM
      1 S         138.8828  138.8769  161.8905 S.O2    1  UNL1        0.0768
      2 O         137.4544  138.4190  161.8888 O.2     1  UNL1       -0.1498
      3 O         140.3111  139.3348  161.8921 O.2     1  UNL1       -0.1498
      4 N         138.5959  139.8941  158.0651 N.am    1  UNL1       -0.2671
      5 C         138.5650  139.9849  159.5620 C.2     1  UNL1        0.3231
      6 O         138.1854  141.2745  160.2276 O.2     1  UNL1       -0.2509
      7 N         138.9137  138.7861  160.3935 N.am    1  UNL1       -0.1690
      8 H         138.8451  139.0477  157.6283 H       1  UNL1        0.1565
      9 H         139.1629  137.9397  159.9567 H       1  UNL1        0.1781
     10 C         137.5499  143.4905  155.5708 C.ar    1  UNL1        0.1388
     11 C         136.5281  142.4178  155.8057 C.ar    1  UNL1        0.0382
     12 C         136.8768  141.2190  156.6372 C.ar    1  UNL1        0.0178
     13 C         138.2472  141.0929  157.2337 C.ar    1  UNL1        0.0518
     14 C         139.2690  142.1656  156.9987 C.ar    1  UNL1        0.0178
     15 C         138.9203  143.3644  156.1673 C.ar    1  UNL1        0.0382
     16 C         137.9858  145.9590  154.8880 C.3     1  UNL1        0.2525
     17 O         137.2012  144.6893  154.7394 O.3     1  UNL1       -0.4714
     18 C         138.8519  138.9677  163.3874 C.ar    1  UNL1        0.1255
     19 C         138.9028  140.3082  164.0586 C.ar    1  UNL1        0.0233
     20 C         138.8719  140.3990  165.5555 C.ar    1  UNL1        0.0383
     21 C         138.7901  139.1494  166.3812 C.ar    1  UNL1        0.1386
     22 C         138.7392  137.8090  165.7100 C.ar    1  UNL1        0.0383
     23 C         138.7701  137.7181  164.2130 C.ar    1  UNL1        0.0233
     24 O         138.7592  139.2402  167.8781 O.3     1  UNL1       -0.4754
     25 C         139.5723  140.2853  168.5831 C.3     1  UNL1        0.2068
     26 C         140.7662  139.8835  169.3975 C.3     1  UNL1        0.0646
     27 C         142.1373  139.9279  168.7907 C.3     1  UNL1        0.0759
     28 N         142.2989  140.1729  167.3197 N.3     1  UNL1       -0.2726
     29 C         142.3431  139.0152  166.3669 C.3     1  UNL1        0.0721
     30 C         142.5047  139.2603  164.8959 C.3     1  UNL1        0.0174
     31 C         142.6222  140.6630  164.3777 C.3     1  UNL1        0.0029
     32 C         142.5781  141.8207  165.3305 C.3     1  UNL1        0.0174
     33 C         142.4164  141.5756  166.8015 C.3     1  UNL1        0.0721
@<TRIPOS>BOND
     1    16    17    1
     2    17    10    1
     3    10    11   ar
     4    11    12   ar
     5    12    13   ar
     6    13     4    1
     7     4     5   am
     8     5     6    2
     9     5     7   am
    10     7     1    1
    11     1     2    2
    12     1     3    2
    13     1    18    1
    14    18    19   ar
    15    19    20   ar
    16    20    21   ar
    17    21    24    1
    18    24    25    1
    19    25    26    1
    20    26    27    1
    21    27    28    1
    22    28    29    1
    23    29    30    1
    24    30    31    1
    25    31    32    1
    26    32    33    1
    27    21    22   ar
    28    22    23   ar
    29    13    14   ar
    30    14    15   ar
    31    15    10   ar
    32    23    18   ar
    33    33    28    1
    34     4     8    1
    35     7     9    1
@<TRIPOS>MOLECULE
*****
 33 35 0 0 0
SMALL
GASTEIGER

@<TRIPOS>ATOM
      1 S         142.7491  139.1801  161.3413 S.O2    1  UNL1        0.0768
      2 O         144.2280  139.3389  161.1474 O.2     1  UNL1       -0.1498
      3 O         141.2702  139.0214  161.5352 O.2     1  UNL1       -0.1498
      4 N         142.3872  138.3740  157.4723 N.am    1  UNL1       -0.2671
      5 C         142.6005  138.1868  158.9452 C.2     1  UNL1        0.3231
      6 O         142.8783  136.8191  159.4950 O.2     1  UNL1       -0.2509
      7 N         142.5359  139.3673  159.8683 N.am    1  UNL1       -0.1690
      8 H         142.2049  139.2716  157.1115 H       1  UNL1        0.1565
      9 H         142.3535  140.2650  159.5075 H       1  UNL1        0.1781
     10 C         142.5810  134.8324  154.7029 C.ar    1  UNL1        0.1388
     11 C         141.2583  135.2935  155.2393 C.ar    1  UNL1        0.0382
     12 C         141.1937  136.4741  156.1624 C.ar    1  UNL1        0.0178
     13 C         142.4518  137.1934  156.5492 C.ar    1  UNL1        0.0518
     14 C         143.7745  136.7323  156.0127 C.ar    1  UNL1        0.0178
     15 C         143.8391  135.5518  155.0896 C.ar    1  UNL1        0.0382
     16 C         142.7316  132.2639  154.3420 C.3     1  UNL1        0.2525
     17 O         142.6456  133.6519  153.7797 O.3     1  UNL1       -0.4714
     18 C         142.9623  138.9930  162.8142 C.ar    1  UNL1        0.1255
     19 C         144.2308  139.4723  163.4554 C.ar    1  UNL1        0.0233
     20 C         144.4440  139.2851  164.9283 C.ar    1  UNL1        0.0383
     21 C         143.3887  138.6186  165.7601 C.ar    1  UNL1        0.1386
     22 C         142.1201  138.1392  165.1190 C.ar    1  UNL1        0.0383
     23 C         141.9069  138.3264  163.6460 C.ar    1  UNL1        0.0233
     24 O         143.6018  138.4314  167.2330 O.3     1  UNL1       -0.4754
     25 C         142.7617  139.1928  168.2151 C.3     1  UNL1        0.2068
     26 C         142.5836  140.6740  168.0600 C.3     1  UNL1        0.0646
     27 C         141.2049  141.2584  167.9719 C.3     1  UNL1        0.0759
     28 N         140.2435  140.7592  166.9343 N.3     1  UNL1       -0.2726
     29 C         139.2446  139.6972  167.2865 C.3     1  UNL1        0.0721
     30 C         138.2832  139.1979  166.2489 C.3     1  UNL1        0.0174
     31 C         138.3208  139.7608  164.8590 C.3     1  UNL1        0.0029
     32 C         139.3199  140.8229  164.5068 C.3     1  UNL1        0.0174
     33 C         140.2812  141.3220  165.5444 C.3     1  UNL1        0.0721
@<TRIPOS>BOND
     1    16    17    1
     2    17    10    1
     3    10    11   ar
     4    11    12   ar
     5    12    13   ar
     6    13     4    1
     7     4     5   am
     8     5     6    2
     9     5     7   am
    10     7     1    1
    11     1     2    2
    12     1     3    2
    13     1    18    1
    14    18    19   ar
    15    19    20   ar
    16    20    21   ar
    17    21    24    1
    18    24    25    1
    19    25    26    1
    20    26    27    1
    21    27    28    1
    22    28    29    1
    23    29    30    1
    24    30    31    1
    25    31    32    1
    26    32    33    1
    27    21    22   ar
    28    22    23   ar
    29    13    14   ar
    30    14    15   ar
    31    15    10   ar
    32    23    18   ar
    33    33    28    1
    34     4     8    1
    35     7     9    1
@<TRIPOS>MOLECULE
*****
 33 35 0 0 0
SMALL
GASTEIGER

@<TRIPOS>ATOM
      1 S         143.4048  140.3810  158.7324 S.O2    1  UNL1        0.0768
      2 O         142.6125  141.1815  157.7417 O.2     1  UNL1       -0.1498
      3 O         144.1970  139.5805  159.7230 O.2     1  UNL1       -0.1498
      4 N         143.6977  137.3155  156.2290 N.am    1  UNL1       -0.2671
      5 C         143.2049  138.1988  157.3366 C.2     1  UNL1        0.3231
      6 O         142.0195  137.7831  158.1564 O.2     1  UNL1       -0.2509
      7 N         143.8976  139.4977  157.6246 N.am    1  UNL1       -0.1690
      8 H         144.4757  137.5884  155.6909 H       1  UNL1        0.1565
      9 H         144.6756  139.7706  157.0866 H       1  UNL1        0.1781
     10 C         141.6197  133.4186  155.3650 C.ar    1  UNL1        0.1388
     11 C         142.7153  133.4737  156.3881 C.ar    1  UNL1        0.0382
     12 C         143.4079  134.7727  156.6760 C.ar    1  UNL1        0.0178
     13 C         143.0050  136.0166  155.9410 C.ar    1  UNL1        0.0518
     14 C         141.9095  135.9615  154.9179 C.ar    1  UNL1        0.0178
     15 C         141.2168  134.6625  154.6299 C.ar    1  UNL1        0.0382
     16 C         141.6406  130.8212  155.3111 C.3     1  UNL1        0.2525
     17 O         140.9271  132.1197  155.0770 O.3     1  UNL1       -0.4714
     18 C         142.9120  141.2642  159.8401 C.ar    1  UNL1        0.1255
     19 C         142.4525  140.6593  161.1336 C.ar    1  UNL1        0.0233
     20 C         141.9597  141.5425  162.2413 C.ar    1  UNL1        0.0383
     21 C         141.9264  143.0306  162.0556 C.ar    1  UNL1        0.1386
     22 C         142.3859  143.6355  160.7622 C.ar    1  UNL1        0.0383
     23 C         142.8787  142.7523  159.6544 C.ar    1  UNL1        0.0233
     24 O         141.4337  143.9138  163.1633 O.3     1  UNL1       -0.4754
     25 C         142.2673  145.0716  163.6267 C.3     1  UNL1        0.2068
     26 C         143.7445  144.9008  163.8237 C.3     1  UNL1        0.0646
     27 C         144.2582  144.0730  164.9642 C.3     1  UNL1        0.0759
     28 N         144.2555  142.5762  164.8655 N.3     1  UNL1       -0.2726
     29 C         143.2553  141.7750  165.6449 C.3     1  UNL1        0.0721
     30 C         143.2527  140.2782  165.5462 C.3     1  UNL1        0.0174
     31 C         144.2502  139.5827  164.6680 C.3     1  UNL1        0.0029
     32 C         145.2504  140.3841  163.8885 C.3     1  UNL1        0.0174
     33 C         145.2531  141.8808  163.9873 C.3     1  UNL1        0.0721
@<TRIPOS>BOND
     1    16    17    1
     2    17    10    1
     3    10    11   ar
     4    11    12   ar
     5    12    13   ar
     6    13     4    1
     7     4     5   am
     8     5     6    2
     9     5     7   am
    10     7     1    1
    11     1     2    2
    12     1     3    2
    13     1    18    1
    14    18    19   ar
    15    19    20   ar
    16    20    21   ar
    17    21    24    1
    18    24    25    1
    19    25    26    1
    20    26    27    1
    21    27    28    1
    22    28    29    1
    23    29    30    1
    24    30    31    1
    25    31    32    1
    26    32    33    1
    27    21    22   ar
    28    22    23   ar
    29    13    14   ar
    30    14    15   ar
    31    15    10   ar
    32    23    18   ar
    33    33    28    1
    34     4     8    1
    35     7     9    1
@<TRIPOS>MOLECULE
*****
 33 35 0 0 0
SMALL
GASTEIGER

@<TRIPOS>ATOM
      1 S         143.1697  139.7992  160.9818 S.O2    1  UNL1        0.0768
      2 O         141.8873  140.4906  160.6251 O.2     1  UNL1       -0.1498
      3 O         144.4522  139.1079  161.3385 O.2     1  UNL1       -0.1498
      4 N         143.1746  138.0009  157.4440 N.am    1  UNL1       -0.2671
      5 C         142.9157  138.2702  158.8967 C.2     1  UNL1        0.3231
      6 O         142.1438  137.2797  159.7172 O.2     1  UNL1       -0.2509
      7 N         143.4287  139.5300  159.5291 N.am    1  UNL1       -0.1690
      8 H         143.6813  138.6510  156.9056 H       1  UNL1        0.1565
      9 H         143.9353  140.1801  158.9906 H       1  UNL1        0.1781
     10 C         141.6357  134.2215  155.5471 C.ar    1  UNL1        0.1388
     11 C         140.9670  135.5325  155.2569 C.ar    1  UNL1        0.0382
     12 C         141.4800  136.7923  155.8892 C.ar    1  UNL1        0.0178
     13 C         142.6617  136.7411  156.8117 C.ar    1  UNL1        0.0518
     14 C         143.3303  135.4302  157.1019 C.ar    1  UNL1        0.0178
     15 C         142.8174  134.1704  156.4696 C.ar    1  UNL1        0.0382
     16 C         141.8067  131.6545  155.1853 C.3     1  UNL1        0.2525
     17 O         141.1227  132.9618  154.9148 O.3     1  UNL1       -0.4714
     18 C         142.9108  140.0685  162.4346 C.ar    1  UNL1        0.1255
     19 C         143.6606  139.3031  163.4845 C.ar    1  UNL1        0.0233
     20 C         143.4017  139.5724  164.9372 C.ar    1  UNL1        0.0383
     21 C         142.3931  140.6069  165.3401 C.ar    1  UNL1        0.1386
     22 C         141.6433  141.3723  164.2903 C.ar    1  UNL1        0.0383
     23 C         141.9022  141.1031  162.8375 C.ar    1  UNL1        0.0233
     24 O         142.1342  140.8762  166.7928 O.3     1  UNL1       -0.4754
     25 C         141.0676  140.1112  167.5189 C.3     1  UNL1        0.2068
     26 C         139.6330  140.2447  167.1017 C.3     1  UNL1        0.0646
     27 C         138.9263  139.0853  166.4642 C.3     1  UNL1        0.0759
     28 N         139.2073  138.7300  165.0342 N.3     1  UNL1       -0.2726
     29 C         140.2157  137.6681  164.7095 C.3     1  UNL1        0.0721
     30 C         140.4966  137.3128  163.2794 C.3     1  UNL1        0.0174
     31 C         139.7692  138.0194  162.1742 C.3     1  UNL1        0.0029
     32 C         138.7608  139.0814  162.4991 C.3     1  UNL1        0.0174
     33 C         138.4798  139.4366  163.9290 C.3     1  UNL1        0.0721
@<TRIPOS>BOND
     1    16    17    1
     2    17    10    1
     3    10    11   ar
     4    11    12   ar
     5    12    13   ar
     6    13     4    1
     7     4     5   am
     8     5     6    2
     9     5     7   am
    10     7     1    1
    11     1     2    2
    12     1     3    2
    13     1    18    1
    14    18    19   ar
    15    19    20   ar
    16    20    21   ar
    17    21    24    1
    18    24    25    1
    19    25    26    1
    20    26    27    1
    21    27    28    1
    22    28    29    1
    23    29    30    1
    24    30    31    1
    25    31    32    1
    26    32    33    1
    27    21    22   ar
    28    22    23   ar
    29    13    14   ar
    30    14    15   ar
    31    15    10   ar
    32    23    18   ar
    33    33    28    1
    34     4     8    1
    35     7     9    1
@<TRIPOS>MOLECULE
*****
 33 35 0 0 0
SMALL
GASTEIGER

@<TRIPOS>ATOM
      1 S         140.4096  144.1340  159.7683 S.O2    1  UNL1        0.0768
      2 O         139.6149  145.2259  160.4211 O.2     1  UNL1       -0.1498
      3 O         141.2043  143.0422  159.1154 O.2     1  UNL1       -0.1498
      4 N         139.2681  145.4619  156.2068 N.am    1  UNL1       -0.2671
      5 C         140.0640  145.2880  157.4663 C.2     1  UNL1        0.3231
      6 O         141.3101  146.0944  157.6835 O.2     1  UNL1       -0.2509
      7 N         139.6137  144.3079  158.5087 N.am    1  UNL1       -0.1690
      8 H         138.4503  144.9327  156.0643 H       1  UNL1        0.1565
      9 H         138.7959  143.7786  158.3662 H       1  UNL1        0.1781
     10 C         140.6188  148.4024  153.0797 C.ar    1  UNL1        0.1388
     11 C         141.0984  146.9820  153.0304 C.ar    1  UNL1        0.0382
     12 C         140.6482  146.0018  154.0728 C.ar    1  UNL1        0.0178
     13 C         139.7184  146.4421  155.1644 C.ar    1  UNL1        0.0518
     14 C         139.2388  147.8624  155.2136 C.ar    1  UNL1        0.0178
     15 C         139.6890  148.8426  154.1713 C.ar    1  UNL1        0.0382
     16 C         142.1593  150.3637  152.3515 C.3     1  UNL1        0.2525
     17 O         141.0691  149.3826  152.0373 O.3     1  UNL1       -0.4714
     18 C         141.2055  143.9602  161.0277 C.ar    1  UNL1        0.1255
     19 C         141.2739  145.0730  162.0313 C.ar    1  UNL1        0.0233
     20 C         142.0698  144.8991  163.2908 C.ar    1  UNL1        0.0383
     21 C         142.7972  143.6125  163.5468 C.ar    1  UNL1        0.1386
     22 C         142.7288  142.4998  162.5433 C.ar    1  UNL1        0.0383
     23 C         141.9329  142.6736  161.2837 C.ar    1  UNL1        0.0233
     24 O         143.5931  143.4387  164.8063 O.3     1  UNL1       -0.4754
     25 C         143.2925  142.2972  165.7319 C.3     1  UNL1        0.2068
     26 C         141.9957  142.2636  166.4848 C.3     1  UNL1        0.0646
     27 C         140.7874  141.6226  165.8692 C.3     1  UNL1        0.0759
     28 N         139.8217  142.4510  165.0746 N.3     1  UNL1       -0.2726
     29 C         139.2415  141.9112  163.8011 C.3     1  UNL1        0.0721
     30 C         138.2757  142.7396  163.0066 C.3     1  UNL1        0.0174
     31 C         137.8903  144.1078  163.4857 C.3     1  UNL1        0.0029
     32 C         138.4706  144.6475  164.7593 C.3     1  UNL1        0.0174
     33 C         139.4362  143.8191  165.5537 C.3     1  UNL1        0.0721
@<TRIPOS>BOND
     1    16    17    1
     2    17    10    1
     3    10    11   ar
     4    11    12   ar
     5    12    13   ar
     6    13     4    1
     7     4     5   am
     8     5     6    2
     9     5     7   am
    10     7     1    1
    11     1     2    2
    12     1     3    2
    13     1    18    1
    14    18    19   ar
    15    19    20   ar
    16    20    21   ar
    17    21    24    1
    18    24    25    1
    19    25    26    1
    20    26    27    1
    21    27    28    1
    22    28    29    1
    23    29    30    1
    24    30    31    1
    25    31    32    1
    26    32    33    1
    27    21    22   ar
    28    22    23   ar
    29    13    14   ar
    30    14    15   ar
    31    15    10   ar
    32    23    18   ar
    33    33    28    1
    34     4     8    1
    35     7     9    1
@<TRIPOS>MOLECULE
*****
 33 35 0 0 0
SMALL
GASTEIGER

@<TRIPOS>ATOM
      1 S         143.0994  139.9003  158.4826 S.O2    1  UNL1        0.0768
      2 O         144.0589  139.2832  159.4566 O.2     1  UNL1       -0.1498
      3 O         142.1400  140.5174  157.5087 O.2     1  UNL1       -0.1498
      4 N         143.9598  137.1426  155.7614 N.am    1  UNL1       -0.2671
      5 C         143.2742  137.8559  156.8888 C.2     1  UNL1        0.3231
      6 O         142.0777  137.2383  157.5499 O.2     1  UNL1       -0.2509
      7 N         143.7851  139.1869  157.3552 N.am    1  UNL1       -0.1690
      8 H         144.7451  137.5480  155.3276 H       1  UNL1        0.1565
      9 H         144.5704  139.5923  156.9213 H       1  UNL1        0.1781
     10 C         142.4272  133.1496  154.3624 C.ar    1  UNL1        0.1388
     11 C         143.3121  133.2318  155.5707 C.ar    1  UNL1        0.0382
     12 C         143.8230  134.5628  156.0371 C.ar    1  UNL1        0.0178
     13 C         143.4489  135.8116  155.2951 C.ar    1  UNL1        0.0518
     14 C         142.5640  135.7294  154.0867 C.ar    1  UNL1        0.0178
     15 C         142.0532  134.3984  153.6204 C.ar    1  UNL1        0.0382
     16 C         141.0277  131.0023  154.7870 C.3     1  UNL1        0.2525
     17 O         141.9163  131.8186  153.8960 O.3     1  UNL1       -0.4714
     18 C         142.4138  140.6136  159.6100 C.ar    1  UNL1        0.1255
     19 C         141.9940  139.8539  160.8334 C.ar    1  UNL1        0.0233
     20 C         141.3084  140.5672  161.9608 C.ar    1  UNL1        0.0383
     21 C         141.0425  142.0403  161.8648 C.ar    1  UNL1        0.1386
     22 C         141.4622  142.8001  160.6415 C.ar    1  UNL1        0.0383
     23 C         142.1479  142.0868  159.5141 C.ar    1  UNL1        0.0233
     24 O         140.3568  142.7537  162.9922 O.3     1  UNL1       -0.4754
     25 C         139.1359  143.5826  162.7231 C.3     1  UNL1        0.2068
     26 C         137.8275  142.9144  162.4204 C.3     1  UNL1        0.0646
     27 C         137.3066  141.8397  163.3279 C.3     1  UNL1        0.0759
     28 N         137.8372  140.4411  163.2158 N.3     1  UNL1       -0.2726
     29 C         137.7703  139.7165  161.9042 C.3     1  UNL1        0.0721
     30 C         138.3009  138.3178  161.7922 C.3     1  UNL1        0.0174
     31 C         138.8983  137.6440  162.9917 C.3     1  UNL1        0.0029
     32 C         138.9651  138.3687  164.3034 C.3     1  UNL1        0.0174
     33 C         138.4346  139.7672  164.4154 C.3     1  UNL1        0.0721
@<TRIPOS>BOND
     1    16    17    1
     2    17    10    1
     3    10    11   ar
     4    11    12   ar
     5    12    13   ar
     6    13     4    1
     7     4     5   am
     8     5     6    2
     9     5     7   am
    10     7     1    1
    11     1     2    2
    12     1     3    2
    13     1    18    1
    14    18    19   ar
    15    19    20   ar
    16    20    21   ar
    17    21    24    1
    18    24    25    1
    19    25    26    1
    20    26    27    1
    21    27    28    1
    22    28    29    1
    23    29    30    1
    24    30    31    1
    25    31    32    1
    26    32    33    1
    27    21    22   ar
    28    22    23   ar
    29    13    14   ar
    30    14    15   ar
    31    15    10   ar
    32    23    18   ar
    33    33    28    1
    34     4     8    1
    35     7     9    1
@<TRIPOS>MOLECULE
*****
 33 35 0 0 0
SMALL
GASTEIGER

@<TRIPOS>ATOM
      1 S         143.0269  140.3191  159.5303 S.O2    1  UNL1        0.0768
      2 O         143.9775  139.5669  160.4138 O.2     1  UNL1       -0.1498
      3 O         142.0763  141.0712  158.6468 O.2     1  UNL1       -0.1498
      4 N         143.4773  137.5610  156.7125 N.am    1  UNL1       -0.2671
      5 C         142.9428  138.2906  157.9090 C.2     1  UNL1        0.3231
      6 O         141.7893  137.7216  158.6809 O.2     1  UNL1       -0.2509
      7 N         143.5616  139.5894  158.3337 N.am    1  UNL1       -0.1690
      8 H         144.2344  137.9344  156.2059 H       1  UNL1        0.1565
      9 H         144.3186  139.9629  157.8271 H       1  UNL1        0.1781
     10 C         141.6209  133.6648  155.4384 C.ar    1  UNL1        0.1388
     11 C         141.1494  134.9536  154.8330 C.ar    1  UNL1        0.0382
     12 C         141.7682  136.2524  155.2577 C.ar    1  UNL1        0.0178
     13 C         142.8585  136.2622  156.2878 C.ar    1  UNL1        0.0518
     14 C         143.3300  134.9734  156.8931 C.ar    1  UNL1        0.0178
     15 C         142.7112  133.6747  156.4684 C.ar    1  UNL1        0.0382
     16 C         141.7282  131.0756  155.2530 C.3     1  UNL1        0.2525
     17 O         141.0021  132.3660  155.0137 O.3     1  UNL1       -0.4714
     18 C         142.4923  141.0487  160.7268 C.ar    1  UNL1        0.1255
     19 C         142.1186  140.2876  161.9642 C.ar    1  UNL1        0.0233
     20 C         141.5839  141.0173  163.1607 C.ar    1  UNL1        0.0383
     21 C         141.4229  142.5081  163.1199 C.ar    1  UNL1        0.1386
     22 C         141.7966  143.2692  161.8826 C.ar    1  UNL1        0.0383
     23 C         142.3313  142.5395  160.6860 C.ar    1  UNL1        0.0233
     24 O         140.8883  143.2377  164.3164 O.3     1  UNL1       -0.4754
     25 C         140.2776  144.5982  164.1541 C.3     1  UNL1        0.2068
     26 C         138.7908  144.7697  164.2533 C.3     1  UNL1        0.0646
     27 C         137.9085  144.3346  163.1209 C.3     1  UNL1        0.0759
     28 N         137.9696  142.9210  162.6229 N.3     1  UNL1       -0.2726
     29 C         137.6945  141.7829  163.5605 C.3     1  UNL1        0.0721
     30 C         137.7556  140.3693  163.0625 C.3     1  UNL1        0.0174
     31 C         138.0919  140.0938  161.6269 C.3     1  UNL1        0.0029
     32 C         138.3670  141.2319  160.6893 C.3     1  UNL1        0.0174
     33 C         138.3059  142.6454  161.1873 C.3     1  UNL1        0.0721
@<TRIPOS>BOND
     1    16    17    1
     2    17    10    1
     3    10    11   ar
     4    11    12   ar
     5    12    13   ar
     6    13     4    1
     7     4     5   am
     8     5     6    2
     9     5     7   am
    10     7     1    1
    11     1     2    2
    12     1     3    2
    13     1    18    1
    14    18    19   ar
    15    19    20   ar
    16    20    21   ar
    17    21    24    1
    18    24    25    1
    19    25    26    1
    20    26    27    1
    21    27    28    1
    22    28    29    1
    23    29    30    1
    24    30    31    1
    25    31    32    1
    26    32    33    1
    27    21    22   ar
    28    22    23   ar
    29    13    14   ar
    30    14    15   ar
    31    15    10   ar
    32    23    18   ar
    33    33    28    1
    34     4     8    1
    35     7     9    1
@<TRIPOS>MOLECULE
*****
 33 35 0 0 0
SMALL
GASTEIGER

@<TRIPOS>ATOM
      1 S         143.7619  139.1476  161.4254 S.O2    1  UNL1        0.0768
      2 O         143.4481  140.5997  161.2182 O.2     1  UNL1       -0.1498
      3 O         144.0757  137.6956  161.6325 O.2     1  UNL1       -0.1498
      4 N         143.1464  138.4779  157.5624 N.am    1  UNL1       -0.2671
      5 C         142.8911  138.6325  159.0324 C.2     1  UNL1        0.3231
      6 O         141.5096  138.4266  159.5794 O.2     1  UNL1       -0.2509
      7 N         144.0172  138.9930  159.9553 N.am    1  UNL1       -0.1690
      8 H         144.0531  138.6130  157.2033 H       1  UNL1        0.1565
      9 H         144.9239  139.1281  159.5963 H       1  UNL1        0.1781
     10 C         139.7680  137.3964  154.7935 C.ar    1  UNL1        0.1388
     11 C         140.0550  138.8365  155.0997 C.ar    1  UNL1        0.0382
     12 C         141.1812  139.1970  156.0226 C.ar    1  UNL1        0.0178
     13 C         142.0202  138.1174  156.6394 C.ar    1  UNL1        0.0518
     14 C         141.7332  136.6774  156.3332 C.ar    1  UNL1        0.0178
     15 C         140.6070  136.3169  155.4103 C.ar    1  UNL1        0.0382
     16 C         137.2879  137.6522  154.0629 C.3     1  UNL1        0.2525
     17 O         138.6418  137.0359  153.8705 O.3     1  UNL1       -0.4714
     18 C         143.5066  139.3022  162.8953 C.ar    1  UNL1        0.1255
     19 C         143.9522  140.5450  163.6074 C.ar    1  UNL1        0.0233
     20 C         143.6969  140.6995  165.0774 C.ar    1  UNL1        0.0383
     21 C         142.9960  139.6113  165.8354 C.ar    1  UNL1        0.1386
     22 C         142.5504  138.3686  165.1234 C.ar    1  UNL1        0.0383
     23 C         142.8057  138.2140  163.6533 C.ar    1  UNL1        0.0233
     24 O         142.7407  139.7659  167.3054 O.3     1  UNL1       -0.4754
     25 C         141.4269  140.3077  167.7856 C.3     1  UNL1        0.2068
     26 C         140.5212  141.0314  166.8338 C.3     1  UNL1        0.0646
     27 C         139.2901  140.3543  166.3086 C.3     1  UNL1        0.0759
     28 N         139.3056  139.7184  164.9500 N.3     1  UNL1       -0.2726
     29 C         139.7840  140.4991  163.7619 C.3     1  UNL1        0.0721
     30 C         139.7995  139.8632  162.4034 C.3     1  UNL1        0.0174
     31 C         139.3367  138.4466  162.2331 C.3     1  UNL1        0.0029
     32 C         138.8583  137.6659  163.4213 C.3     1  UNL1        0.0174
     33 C         138.8428  138.3018  164.7797 C.3     1  UNL1        0.0721
@<TRIPOS>BOND
     1    16    17    1
     2    17    10    1
     3    10    11   ar
     4    11    12   ar
     5    12    13   ar
     6    13     4    1
     7     4     5   am
     8     5     6    2
     9     5     7   am
    10     7     1    1
    11     1     2    2
    12     1     3    2
    13     1    18    1
    14    18    19   ar
    15    19    20   ar
    16    20    21   ar
    17    21    24    1
    18    24    25    1
    19    25    26    1
    20    26    27    1
    21    27    28    1
    22    28    29    1
    23    29    30    1
    24    30    31    1
    25    31    32    1
    26    32    33    1
    27    21    22   ar
    28    22    23   ar
    29    13    14   ar
    30    14    15   ar
    31    15    10   ar
    32    23    18   ar
    33    33    28    1
    34     4     8    1
    35     7     9    1
