@<TRIPOS>MOLECULE
*****
 30 34 0 0 0
SMALL
GASTEIGER

@<TRIPOS>ATOM
      1 N         142.7659  139.9393  160.8840 N.ar    1  UNL1       -0.3178
      2 C         144.0708  139.3432  161.3220 C.ar    1  UNL1        0.0779
      3 C         144.3262  139.0844  162.7772 C.ar    1  UNL1        0.0394
      4 C         143.2767  139.4216  163.7945 C.ar    1  UNL1        0.1035
      5 N         143.2439  139.2804  165.2875 N.ar    1  UNL1       -0.2249
      6 C         141.9187  139.7892  165.7722 C.ar    1  UNL1        0.1645
      7 N         141.1325  140.2449  164.5788 N.ar    1  UNL1       -0.2235
      8 C         141.9718  140.0177  163.3565 C.ar    1  UNL1        0.1178
      9 C         141.7164  140.2765  161.9013 C.ar    1  UNL1        0.0971
     10 C         141.4602  139.8345  167.1998 C.ar    1  UNL1        0.0632
     11 C         142.4248  139.5297  168.3073 C.ar    1  UNL1        0.0053
     12 C         141.9663  139.5750  169.7348 C.ar    1  UNL1        0.0002
     13 C         140.5433  139.9250  170.0547 C.ar    1  UNL1        0.0023
     14 C         139.5787  140.2297  168.9472 C.ar    1  UNL1        0.0297
     15 C         140.0372  140.1845  167.5197 C.ar    1  UNL1        0.1430
     16 F         139.0726  140.4892  166.4121 F       1  UNL1       -0.2041
     17 C         142.5105  140.1982  159.4287 C.3     1  UNL1        0.1555
     18 N         142.9228  137.0631  157.1778 N.ar    1  UNL1       -0.2092
     19 C         142.3076  137.7583  158.3560 C.ar    1  UNL1        0.1204
     20 C         142.8557  139.1535  158.4092 C.ar    1  UNL1        0.1240
     21 N         143.8098  139.3207  157.2639 N.ar    1  UNL1       -0.1308
     22 N         143.8513  138.0288  156.5029 N.ar    1  UNL1       -0.0598
     23 C         142.1237  132.8250  155.8936 C.ar    1  UNL1        0.1388
     24 C         141.3788  133.9568  155.2501 C.ar    1  UNL1        0.0384
     25 C         141.6452  135.3695  155.6782 C.ar    1  UNL1        0.0223
     26 C         142.6564  135.6504  156.7498 C.ar    1  UNL1        0.0847
     27 C         143.4013  134.5186  157.3933 C.ar    1  UNL1        0.0223
     28 C         143.1349  133.1059  156.9652 C.ar    1  UNL1        0.0384
     29 C         140.6144  131.0846  154.6924 C.3     1  UNL1        0.2525
     30 O         141.8573  131.4123  155.4655 O.3     1  UNL1       -0.4714
@<TRIPOS>BOND
     1    29    30    1
     2    30    23    1
     3    23    24   ar
     4    24    25   ar
     5    25    26   ar
     6    26    18    1
     7    18    19   ar
     8    19    20   ar
     9    20    17    1
    10    17     1    1
    11     1     2   ar
    12     2     3   ar
    13     3     4   ar
    14     4     5   ar
    15     5     6   ar
    16     6    10    1
    17    10    11   ar
    18    11    12   ar
    19    12    13   ar
    20    13    14   ar
    21    14    15   ar
    22    15    16    1
    23     6     7   ar
    24     7     8   ar
    25     8     9   ar
    26    20    21   ar
    27    21    22   ar
    28    26    27   ar
    29    27    28   ar
    30    28    23   ar
    31    22    18   ar
    32     9     1   ar
    33     8     4    1
    34    15    10   ar
@<TRIPOS>MOLECULE
*****
 30 34 0 0 0
SMALL
GASTEIGER

@<TRIPOS>ATOM
      1 N         140.2711  138.5297  156.9698 N.ar    1  UNL1       -0.3178
      2 C         139.3734  138.1899  155.8171 C.ar    1  UNL1        0.0779
      3 C         139.5986  136.9284  155.0375 C.ar    1  UNL1        0.0394
      4 C         140.7216  136.0066  155.4106 C.ar    1  UNL1        0.1035
      5 N         141.1845  134.7028  154.8311 N.ar    1  UNL1       -0.2249
      6 C         142.3683  134.2367  155.6256 C.ar    1  UNL1        0.1645
      7 N         142.6371  135.2525  156.6961 N.ar    1  UNL1       -0.2235
      8 C         141.6194  136.3464  156.5632 C.ar    1  UNL1        0.1178
      9 C         141.3941  137.6079  157.3428 C.ar    1  UNL1        0.0971
     10 C         143.1468  132.9761  155.3909 C.ar    1  UNL1        0.0632
     11 C         142.8480  132.1219  154.1946 C.ar    1  UNL1        0.0053
     12 C         143.6264  130.8614  153.9599 C.ar    1  UNL1        0.0002
     13 C         144.7036  130.4551  154.9214 C.ar    1  UNL1        0.0023
     14 C         145.0024  131.3093  156.1176 C.ar    1  UNL1        0.0297
     15 C         144.2240  132.5698  156.3524 C.ar    1  UNL1        0.1430
     16 F         144.5228  133.4241  157.5486 F       1  UNL1       -0.2041
     17 C         140.0459  139.7912  157.7494 C.3     1  UNL1        0.1555
     18 N         138.4894  139.5840  161.2990 N.ar    1  UNL1       -0.2092
     19 C         139.6743  139.5143  160.3820 C.ar    1  UNL1        0.1204
     20 C         139.1940  139.7680  158.9838 C.ar    1  UNL1        0.1240
     21 N         137.7121  139.9946  159.0367 N.ar    1  UNL1       -0.1308
     22 N         137.2766  139.8808  160.4676 N.ar    1  UNL1       -0.0598
     23 C         138.5601  139.0044  165.7609 C.ar    1  UNL1        0.1388
     24 C         138.8798  137.8562  164.8503 C.ar    1  UNL1        0.0384
     25 C         138.8562  138.0494  163.3630 C.ar    1  UNL1        0.0223
     26 C         138.5129  139.3908  162.7863 C.ar    1  UNL1        0.0847
     27 C         138.1932  140.5391  163.6970 C.ar    1  UNL1        0.0223
     28 C         138.2168  140.3458  165.1843 C.ar    1  UNL1        0.0384
     29 C         139.1947  139.8586  168.1310 C.3     1  UNL1        0.2525
     30 O         138.5837  138.8112  167.2482 O.3     1  UNL1       -0.4714
@<TRIPOS>BOND
     1    29    30    1
     2    30    23    1
     3    23    24   ar
     4    24    25   ar
     5    25    26   ar
     6    26    18    1
     7    18    19   ar
     8    19    20   ar
     9    20    17    1
    10    17     1    1
    11     1     2   ar
    12     2     3   ar
    13     3     4   ar
    14     4     5   ar
    15     5     6   ar
    16     6    10    1
    17    10    11   ar
    18    11    12   ar
    19    12    13   ar
    20    13    14   ar
    21    14    15   ar
    22    15    16    1
    23     6     7   ar
    24     7     8   ar
    25     8     9   ar
    26    20    21   ar
    27    21    22   ar
    28    26    27   ar
    29    27    28   ar
    30    28    23   ar
    31    22    18   ar
    32     9     1   ar
    33     8     4    1
    34    15    10   ar
@<TRIPOS>MOLECULE
*****
 30 34 0 0 0
SMALL
GASTEIGER

@<TRIPOS>ATOM
      1 N         141.7195  139.5300  159.9523 N.ar    1  UNL1       -0.3178
      2 C         140.3843  138.8515  160.0354 C.ar    1  UNL1        0.0779
      3 C         139.7531  138.5996  161.3725 C.ar    1  UNL1        0.0394
      4 C         140.4570  139.0260  162.6266 C.ar    1  UNL1        0.1035
      5 N         140.0842  138.9122  164.0751 N.ar    1  UNL1       -0.2249
      6 C         141.1891  139.5203  164.8872 C.ar    1  UNL1        0.1645
      7 N         142.2446  140.0099  163.9406 N.ar    1  UNL1       -0.2235
      8 C         141.7922  139.7045  162.5435 C.ar    1  UNL1        0.1178
      9 C         142.4235  139.9564  161.2063 C.ar    1  UNL1        0.0971
     10 C         141.2310  139.6210  166.3833 C.ar    1  UNL1        0.0632
     11 C         140.0087  140.0476  167.1408 C.ar    1  UNL1        0.0053
     12 C         140.0506  140.1483  168.6368 C.ar    1  UNL1        0.0002
     13 C         141.3149  139.8226  169.3752 C.ar    1  UNL1        0.0023
     14 C         142.5373  139.3960  168.6177 C.ar    1  UNL1        0.0297
     15 C         142.4953  139.2952  167.1217 C.ar    1  UNL1        0.1430
     16 F         143.7177  138.8687  166.3642 F       1  UNL1       -0.2041
     17 C         142.3509  139.7819  158.6151 C.3     1  UNL1        0.1555
     18 N         143.0124  136.4026  156.8242 N.ar    1  UNL1       -0.2092
     19 C         142.2862  137.2217  157.8497 C.ar    1  UNL1        0.1204
     20 C         142.8012  138.6282  157.7690 C.ar    1  UNL1        0.1240
     21 N         143.8456  138.6784  156.6935 N.ar    1  UNL1       -0.1308
     22 N         143.9761  137.3029  156.1096 N.ar    1  UNL1       -0.0598
     23 C         142.4060  132.0148  156.0306 C.ar    1  UNL1        0.1388
     24 C         141.5631  133.0296  155.3168 C.ar    1  UNL1        0.0384
     25 C         141.7653  134.4921  155.5813 C.ar    1  UNL1        0.0223
     26 C         142.8103  134.9400  156.5597 C.ar    1  UNL1        0.0847
     27 C         143.6532  133.9252  157.2736 C.ar    1  UNL1        0.0223
     28 C         143.4511  132.4626  157.0091 C.ar    1  UNL1        0.0384
     29 C         141.0252  130.0916  154.9610 C.3     1  UNL1        0.2525
     30 O         142.2039  130.5523  155.7661 O.3     1  UNL1       -0.4714
@<TRIPOS>BOND
     1    29    30    1
     2    30    23    1
     3    23    24   ar
     4    24    25   ar
     5    25    26   ar
     6    26    18    1
     7    18    19   ar
     8    19    20   ar
     9    20    17    1
    10    17     1    1
    11     1     2   ar
    12     2     3   ar
    13     3     4   ar
    14     4     5   ar
    15     5     6   ar
    16     6    10    1
    17    10    11   ar
    18    11    12   ar
    19    12    13   ar
    20    13    14   ar
    21    14    15   ar
    22    15    16    1
    23     6     7   ar
    24     7     8   ar
    25     8     9   ar
    26    20    21   ar
    27    21    22   ar
    28    26    27   ar
    29    27    28   ar
    30    28    23   ar
    31    22    18   ar
    32     9     1   ar
    33     8     4    1
    34    15    10   ar
@<TRIPOS>MOLECULE
*****
 30 34 0 0 0
SMALL
GASTEIGER

@<TRIPOS>ATOM
      1 N         139.7886  140.7414  158.9492 N.ar    1  UNL1       -0.3178
      2 C         141.2273  141.0002  159.2853 C.ar    1  UNL1        0.0779
      3 C         142.2873  140.0394  158.8347 C.ar    1  UNL1        0.0394
      4 C         141.9086  138.8197  158.0479 C.ar    1  UNL1        0.1035
      5 N         142.7273  137.7023  157.4723 N.ar    1  UNL1       -0.2249
      6 C         141.7946  136.7530  156.7805 C.ar    1  UNL1        0.1645
      7 N         140.3994  137.2836  156.9286 N.ar    1  UNL1       -0.2235
      8 C         140.4698  138.5609  157.7118 C.ar    1  UNL1        0.1178
      9 C         139.4098  139.5217  158.1625 C.ar    1  UNL1        0.0971
     10 C         142.1879  135.4940  156.0661 C.ar    1  UNL1        0.0632
     11 C         141.7835  135.2852  154.6368 C.ar    1  UNL1        0.0053
     12 C         142.1768  134.0263  153.9224 C.ar    1  UNL1        0.0002
     13 C         142.9745  132.9762  154.6372 C.ar    1  UNL1        0.0023
     14 C         143.3788  133.1850  156.0665 C.ar    1  UNL1        0.0297
     15 C         142.9856  134.4439  156.7810 C.ar    1  UNL1        0.1430
     16 F         143.3899  134.6528  158.2103 F       1  UNL1       -0.2041
     17 C         138.7285  141.7022  159.3999 C.3     1  UNL1        0.1555
     18 N         138.5830  141.7235  163.2785 N.ar    1  UNL1       -0.2092
     19 C         139.0210  141.0984  161.9873 C.ar    1  UNL1        0.1204
     20 C         138.5190  141.9556  160.8634 C.ar    1  UNL1        0.1240
     21 N         137.7706  143.1105  161.4600 N.ar    1  UNL1       -0.1308
     22 N         137.8101  142.9672  162.9526 N.ar    1  UNL1       -0.0598
     23 C         139.4372  140.1455  167.4052 C.ar    1  UNL1        0.1388
     24 C         138.5127  139.3961  166.4922 C.ar    1  UNL1        0.0384
     25 C         138.2280  139.9221  165.1166 C.ar    1  UNL1        0.0223
     26 C         138.8677  141.1975  164.6541 C.ar    1  UNL1        0.0847
     27 C         139.7922  141.9470  165.5671 C.ar    1  UNL1        0.0223
     28 C         140.0769  141.4210  166.9427 C.ar    1  UNL1        0.0384
     29 C         139.3567  140.4345  169.9858 C.3     1  UNL1        0.2525
     30 O         139.7219  139.6195  168.7808 O.3     1  UNL1       -0.4714
@<TRIPOS>BOND
     1    29    30    1
     2    30    23    1
     3    23    24   ar
     4    24    25   ar
     5    25    26   ar
     6    26    18    1
     7    18    19   ar
     8    19    20   ar
     9    20    17    1
    10    17     1    1
    11     1     2   ar
    12     2     3   ar
    13     3     4   ar
    14     4     5   ar
    15     5     6   ar
    16     6    10    1
    17    10    11   ar
    18    11    12   ar
    19    12    13   ar
    20    13    14   ar
    21    14    15   ar
    22    15    16    1
    23     6     7   ar
    24     7     8   ar
    25     8     9   ar
    26    20    21   ar
    27    21    22   ar
    28    26    27   ar
    29    27    28   ar
    30    28    23   ar
    31    22    18   ar
    32     9     1   ar
    33     8     4    1
    34    15    10   ar
@<TRIPOS>MOLECULE
*****
 30 34 0 0 0
SMALL
GASTEIGER

@<TRIPOS>ATOM
      1 N         141.4349  139.4883  158.7119 N.ar    1  UNL1       -0.3178
      2 C         139.9725  139.3063  158.4320 C.ar    1  UNL1        0.0779
      3 C         138.9929  139.2521  159.5666 C.ar    1  UNL1        0.0394
      4 C         139.4756  139.3799  160.9811 C.ar    1  UNL1        0.1035
      5 N         138.7508  139.3640  162.2943 N.ar    1  UNL1       -0.2249
      6 C         139.7653  139.5363  163.3857 C.ar    1  UNL1        0.1645
      7 N         141.1170  139.6586  162.7470 N.ar    1  UNL1       -0.2235
      8 C         140.9380  139.5619  161.2609 C.ar    1  UNL1        0.1178
      9 C         141.9176  139.6161  160.1263 C.ar    1  UNL1        0.0971
     10 C         139.4784  139.5788  164.8574 C.ar    1  UNL1        0.0632
     11 C         138.3930  138.7196  165.4351 C.ar    1  UNL1        0.0053
     12 C         138.1061  138.7620  166.9068 C.ar    1  UNL1        0.0002
     13 C         138.9046  139.6637  167.8008 C.ar    1  UNL1        0.0023
     14 C         139.9900  140.5230  167.2231 C.ar    1  UNL1        0.0297
     15 C         140.2769  140.4805  165.7515 C.ar    1  UNL1        0.1430
     16 F         141.3622  141.3397  165.1738 F       1  UNL1       -0.2041
     17 C         142.4146  139.5425  157.5772 C.3     1  UNL1        0.1555
     18 N         143.3523  135.9212  156.5417 N.ar    1  UNL1       -0.2092
     19 C         142.5087  136.8831  157.3248 C.ar    1  UNL1        0.1204
     20 C         142.9793  138.2728  157.0126 C.ar    1  UNL1        0.1240
     21 N         144.1136  138.1698  156.0366 N.ar    1  UNL1       -0.1308
     22 N         144.3442  136.7165  155.7456 N.ar    1  UNL1       -0.0598
     23 C         142.9737  131.4374  156.5751 C.ar    1  UNL1        0.1388
     24 C         144.0630  132.1039  157.3618 C.ar    1  UNL1        0.0384
     25 C         144.1892  133.5985  157.3507 C.ar    1  UNL1        0.0223
     26 C         143.2261  134.4266  156.5529 C.ar    1  UNL1        0.0847
     27 C         142.1367  133.7600  155.7661 C.ar    1  UNL1        0.0223
     28 C         142.0106  132.2654  155.7772 C.ar    1  UNL1        0.0384
     29 C         143.2845  129.1621  157.7903 C.3     1  UNL1        0.2525
     30 O         142.8476  129.9427  156.5863 O.3     1  UNL1       -0.4714
@<TRIPOS>BOND
     1    29    30    1
     2    30    23    1
     3    23    24   ar
     4    24    25   ar
     5    25    26   ar
     6    26    18    1
     7    18    19   ar
     8    19    20   ar
     9    20    17    1
    10    17     1    1
    11     1     2   ar
    12     2     3   ar
    13     3     4   ar
    14     4     5   ar
    15     5     6   ar
    16     6    10    1
    17    10    11   ar
    18    11    12   ar
    19    12    13   ar
    20    13    14   ar
    21    14    15   ar
    22    15    16    1
    23     6     7   ar
    24     7     8   ar
    25     8     9   ar
    26    20    21   ar
    27    21    22   ar
    28    26    27   ar
    29    27    28   ar
    30    28    23   ar
    31    22    18   ar
    32     9     1   ar
    33     8     4    1
    34    15    10   ar
@<TRIPOS>MOLECULE
*****
 30 34 0 0 0
SMALL
GASTEIGER

@<TRIPOS>ATOM
      1 N         141.8384  138.3195  157.7820 N.ar    1  UNL1       -0.3178
      2 C         140.5132  138.8328  157.3023 C.ar    1  UNL1        0.0779
      3 C         139.4267  139.1416  158.2893 C.ar    1  UNL1        0.0394
      4 C         139.6655  138.9370  159.7560 C.ar    1  UNL1        0.1035
      5 N         138.7904  139.1529  160.9550 N.ar    1  UNL1       -0.2249
      6 C         139.5749  138.7730  162.1758 C.ar    1  UNL1        0.1645
      7 N         140.9348  138.3224  161.7311 N.ar    1  UNL1       -0.2235
      8 C         140.9908  138.4238  160.2356 C.ar    1  UNL1        0.1178
      9 C         142.0772  138.1150  159.2486 C.ar    1  UNL1        0.0971
     10 C         139.0855  138.8332  163.5925 C.ar    1  UNL1        0.0632
     11 C         138.9744  137.5750  164.4016 C.ar    1  UNL1        0.0053
     12 C         138.4850  137.6351  165.8182 C.ar    1  UNL1        0.0002
     13 C         138.1068  138.9534  166.4257 C.ar    1  UNL1        0.0023
     14 C         138.2179  140.2116  165.6166 C.ar    1  UNL1        0.0297
     15 C         138.7073  140.1514  164.1999 C.ar    1  UNL1        0.1430
     16 F         138.8184  141.4096  163.3908 F       1  UNL1       -0.2041
     17 C         142.9250  138.0108  156.7949 C.3     1  UNL1        0.1555
     18 N         143.4610  134.2047  156.2547 N.ar    1  UNL1       -0.2092
     19 C         143.3143  135.3916  157.1601 C.ar    1  UNL1        0.1204
     20 C         143.1146  136.6064  156.3032 C.ar    1  UNL1        0.1240
     21 N         143.1378  136.1704  154.8682 N.ar    1  UNL1       -0.1308
     22 N         143.3519  134.6860  154.8382 N.ar    1  UNL1       -0.0598
     23 C         144.1136  129.9476  157.5589 C.ar    1  UNL1        0.1388
     24 C         144.9996  131.0374  158.0852 C.ar    1  UNL1        0.0384
     25 C         144.7821  132.4565  157.6505 C.ar    1  UNL1        0.0223
     26 C         143.6785  132.7857  156.6894 C.ar    1  UNL1        0.0847
     27 C         142.7924  131.6958  156.1631 C.ar    1  UNL1        0.0223
     28 C         143.0099  130.2768  156.5978 C.ar    1  UNL1        0.0384
     29 C         144.7846  128.2339  159.3926 C.3     1  UNL1        0.2525
     30 O         144.3311  128.5286  157.9936 O.3     1  UNL1       -0.4714
@<TRIPOS>BOND
     1    29    30    1
     2    30    23    1
     3    23    24   ar
     4    24    25   ar
     5    25    26   ar
     6    26    18    1
     7    18    19   ar
     8    19    20   ar
     9    20    17    1
    10    17     1    1
    11     1     2   ar
    12     2     3   ar
    13     3     4   ar
    14     4     5   ar
    15     5     6   ar
    16     6    10    1
    17    10    11   ar
    18    11    12   ar
    19    12    13   ar
    20    13    14   ar
    21    14    15   ar
    22    15    16    1
    23     6     7   ar
    24     7     8   ar
    25     8     9   ar
    26    20    21   ar
    27    21    22   ar
    28    26    27   ar
    29    27    28   ar
    30    28    23   ar
    31    22    18   ar
    32     9     1   ar
    33     8     4    1
    34    15    10   ar
@<TRIPOS>MOLECULE
*****
 30 34 0 0 0
SMALL
GASTEIGER

@<TRIPOS>ATOM
      1 N         140.1780  144.8404  162.4842 N.ar    1  UNL1       -0.3178
      2 C         138.8782  145.0297  163.2086 C.ar    1  UNL1        0.0779
      3 C         138.7020  144.4740  164.5906 C.ar    1  UNL1        0.0394
      4 C         139.8256  143.7289  165.2483 C.ar    1  UNL1        0.1035
      5 N         139.9440  143.0731  166.5922 N.ar    1  UNL1       -0.2249
      6 C         141.3170  142.4785  166.6983 C.ar    1  UNL1        0.1645
      7 N         142.0471  142.7668  165.4201 N.ar    1  UNL1       -0.2235
      8 C         141.1253  143.5395  164.5239 C.ar    1  UNL1        0.1178
      9 C         141.3015  144.0953  163.1419 C.ar    1  UNL1        0.0971
     10 C         141.8640  141.7274  167.8760 C.ar    1  UNL1        0.0632
     11 C         142.9194  142.3522  168.7395 C.ar    1  UNL1        0.0053
     12 C         143.4664  141.6012  169.9171 C.ar    1  UNL1        0.0002
     13 C         142.9580  140.2254  170.2311 C.ar    1  UNL1        0.0023
     14 C         141.9025  139.6006  169.3676 C.ar    1  UNL1        0.0297
     15 C         141.3555  140.3516  168.1900 C.ar    1  UNL1        0.1430
     16 F         140.3001  139.7268  167.3265 F       1  UNL1       -0.2041
     17 C         140.3542  145.3962  161.1021 C.3     1  UNL1        0.1555
     18 N         142.1795  142.8716  158.7869 N.ar    1  UNL1       -0.2092
     19 C         141.2061  143.1725  159.8878 C.ar    1  UNL1        0.1204
     20 C         141.1881  144.6577  160.0975 C.ar    1  UNL1        0.1240
     21 N         142.1503  145.2747  159.1262 N.ar    1  UNL1       -0.1308
     22 N         142.7630  144.1709  158.3162 N.ar    1  UNL1       -0.0598
     23 C         143.1743  138.7884  157.1785 C.ar    1  UNL1        0.1388
     24 C         142.9644  139.9353  156.2351 C.ar    1  UNL1        0.0384
     25 C         142.6328  141.2964  156.7712 C.ar    1  UNL1        0.0223
     26 C         142.5111  141.5105  158.2508 C.ar    1  UNL1        0.0847
     27 C         142.7211  140.3635  159.1943 C.ar    1  UNL1        0.0223
     28 C         143.0527  139.0024  158.6582 C.ar    1  UNL1        0.0384
     29 C         144.2784  137.2926  155.3637 C.3     1  UNL1        0.2525
     30 O         143.5060  137.4273  156.6424 O.3     1  UNL1       -0.4714
@<TRIPOS>BOND
     1    29    30    1
     2    30    23    1
     3    23    24   ar
     4    24    25   ar
     5    25    26   ar
     6    26    18    1
     7    18    19   ar
     8    19    20   ar
     9    20    17    1
    10    17     1    1
    11     1     2   ar
    12     2     3   ar
    13     3     4   ar
    14     4     5   ar
    15     5     6   ar
    16     6    10    1
    17    10    11   ar
    18    11    12   ar
    19    12    13   ar
    20    13    14   ar
    21    14    15   ar
    22    15    16    1
    23     6     7   ar
    24     7     8   ar
    25     8     9   ar
    26    20    21   ar
    27    21    22   ar
    28    26    27   ar
    29    27    28   ar
    30    28    23   ar
    31    22    18   ar
    32     9     1   ar
    33     8     4    1
    34    15    10   ar
@<TRIPOS>MOLECULE
*****
 30 34 0 0 0
SMALL
GASTEIGER

@<TRIPOS>ATOM
      1 N         138.9390  142.3866  156.4940 N.ar    1  UNL1       -0.3178
      2 C         139.7682  142.7758  157.6818 C.ar    1  UNL1        0.0779
      3 C         140.1354  144.2135  157.9014 C.ar    1  UNL1        0.0394
      4 C         139.6734  145.2619  156.9332 C.ar    1  UNL1        0.1035
      5 N         139.8777  146.7474  156.8892 N.ar    1  UNL1       -0.2249
      6 C         139.1747  147.2761  155.6743 C.ar    1  UNL1        0.1645
      7 N         138.5360  146.1175  154.9673 N.ar    1  UNL1       -0.2235
      8 C         138.8443  144.8727  155.7454 C.ar    1  UNL1        0.1178
      9 C         138.4770  143.4350  155.5258 C.ar    1  UNL1        0.0971
     10 C         139.1200  148.7115  155.2420 C.ar    1  UNL1        0.0632
     11 C         139.6556  149.1113  153.8992 C.ar    1  UNL1        0.0053
     12 C         139.6009  150.5466  153.4669 C.ar    1  UNL1        0.0002
     13 C         139.0106  151.5821  154.3775 C.ar    1  UNL1        0.0023
     14 C         138.4751  151.1823  155.7204 C.ar    1  UNL1        0.0297
     15 C         138.5297  149.7470  156.1527 C.ar    1  UNL1        0.1430
     16 F         137.9942  149.3472  157.4955 F       1  UNL1       -0.2041
     17 C         138.5718  140.9489  156.2743 C.3     1  UNL1        0.1555
     18 N         134.8064  140.1969  155.7069 N.ar    1  UNL1       -0.2092
     19 C         135.9366  140.6323  156.5918 C.ar    1  UNL1        0.1204
     20 C         137.1999  140.5917  155.7840 C.ar    1  UNL1        0.1240
     21 N         136.8505  140.1313  154.3999 N.ar    1  UNL1       -0.1308
     22 N         135.3712  139.8873  154.3522 N.ar    1  UNL1       -0.0598
     23 C         130.4809  139.8761  156.9056 C.ar    1  UNL1        0.1388
     24 C         131.4727  138.8643  157.3980 C.ar    1  UNL1        0.0384
     25 C         132.9145  138.9712  156.9984 C.ar    1  UNL1        0.0223
     26 C         133.3646  140.0900  156.1065 C.ar    1  UNL1        0.0847
     27 C         132.3728  141.1018  155.6140 C.ar    1  UNL1        0.0223
     28 C         130.9310  140.9949  156.0136 C.ar    1  UNL1        0.0384
     29 C         128.6676  139.1235  158.6071 C.3     1  UNL1        0.2525
     30 O         129.0391  139.7691  157.3052 O.3     1  UNL1       -0.4714
@<TRIPOS>BOND
     1    29    30    1
     2    30    23    1
     3    23    24   ar
     4    24    25   ar
     5    25    26   ar
     6    26    18    1
     7    18    19   ar
     8    19    20   ar
     9    20    17    1
    10    17     1    1
    11     1     2   ar
    12     2     3   ar
    13     3     4   ar
    14     4     5   ar
    15     5     6   ar
    16     6    10    1
    17    10    11   ar
    18    11    12   ar
    19    12    13   ar
    20    13    14   ar
    21    14    15   ar
    22    15    16    1
    23     6     7   ar
    24     7     8   ar
    25     8     9   ar
    26    20    21   ar
    27    21    22   ar
    28    26    27   ar
    29    27    28   ar
    30    28    23   ar
    31    22    18   ar
    32     9     1   ar
    33     8     4    1
    34    15    10   ar
@<TRIPOS>MOLECULE
*****
 30 34 0 0 0
SMALL
GASTEIGER

@<TRIPOS>ATOM
      1 N         139.8166  140.2242  160.0586 N.ar    1  UNL1       -0.3178
      2 C         138.5164  139.5175  160.3037 C.ar    1  UNL1        0.0779
      3 C         137.9844  139.3889  161.7003 C.ar    1  UNL1        0.0394
      4 C         138.7525  139.9670  162.8517 C.ar    1  UNL1        0.1035
      5 N         138.4803  139.9955  164.3266 N.ar    1  UNL1       -0.2249
      6 C         139.6123  140.7198  164.9929 C.ar    1  UNL1        0.1645
      7 N         140.5840  141.1390  163.9299 N.ar    1  UNL1       -0.2235
      8 C         140.0527  140.6738  162.6066 C.ar    1  UNL1        0.1178
      9 C         140.5847  140.8023  161.2100 C.ar    1  UNL1        0.0971
     10 C         139.7486  140.9793  166.4640 C.ar    1  UNL1        0.0632
     11 C         140.4076  142.2378  166.9456 C.ar    1  UNL1        0.0053
     12 C         140.5439  142.4974  168.4167 C.ar    1  UNL1        0.0002
     13 C         140.0213  141.4985  169.4061 C.ar    1  UNL1        0.0023
     14 C         139.3623  140.2400  168.9245 C.ar    1  UNL1        0.0297
     15 C         139.2260  139.9804  167.4535 C.ar    1  UNL1        0.1430
     16 F         138.5670  138.7219  166.9718 F       1  UNL1       -0.2041
     17 C         140.3487  140.3528  158.6620 C.3     1  UNL1        0.1555
     18 N         142.2496  137.2613  157.2858 N.ar    1  UNL1       -0.2092
     19 C         140.9909  137.9147  157.7744 C.ar    1  UNL1        0.1204
     20 C         141.3143  139.3354  158.1307 C.ar    1  UNL1        0.1240
     21 N         142.7729  139.5601  157.8623 N.ar    1  UNL1       -0.1308
     22 N         143.3510  138.2782  157.3402 N.ar    1  UNL1       -0.0598
     23 C         142.6513  132.9988  155.9003 C.ar    1  UNL1        0.1388
     24 C         141.6852  133.9213  155.2181 C.ar    1  UNL1        0.0384
     25 C         141.5513  135.3421  155.6799 C.ar    1  UNL1        0.0223
     26 C         142.3835  135.8404  156.8240 C.ar    1  UNL1        0.0847
     27 C         143.3497  134.9179  157.5063 C.ar    1  UNL1        0.0223
     28 C         143.4836  133.4971  157.0445 C.ar    1  UNL1        0.0384
     29 C         143.3748  131.2794  154.0920 C.3     1  UNL1        0.2525
     30 O         142.7852  131.5780  155.4385 O.3     1  UNL1       -0.4714
@<TRIPOS>BOND
     1    29    30    1
     2    30    23    1
     3    23    24   ar
     4    24    25   ar
     5    25    26   ar
     6    26    18    1
     7    18    19   ar
     8    19    20   ar
     9    20    17    1
    10    17     1    1
    11     1     2   ar
    12     2     3   ar
    13     3     4   ar
    14     4     5   ar
    15     5     6   ar
    16     6    10    1
    17    10    11   ar
    18    11    12   ar
    19    12    13   ar
    20    13    14   ar
    21    14    15   ar
    22    15    16    1
    23     6     7   ar
    24     7     8   ar
    25     8     9   ar
    26    20    21   ar
    27    21    22   ar
    28    26    27   ar
    29    27    28   ar
    30    28    23   ar
    31    22    18   ar
    32     9     1   ar
    33     8     4    1
    34    15    10   ar
