@<TRIPOS>MOLECULE
*****
 38 41 0 0 0
SMALL
GASTEIGER

@<TRIPOS>ATOM
      1 C         143.5132  142.1081  158.1991 C.3     1  UNL1        0.0759
      2 C         142.2741  142.8885  158.5242 C.3     1  UNL1        0.0370
      3 C         142.1642  143.6094  159.8349 C.3     1  UNL1        0.0741
      4 N         143.2933  143.5500  160.8206 N.3     1  UNL1       -0.2688
      5 C         144.5324  142.7696  160.4955 C.3     1  UNL1        0.0741
      6 C         144.6423  142.0487  159.1848 C.3     1  UNL1        0.0370
      7 O         143.2279  139.1233  158.1003 O.2     1  UNL1       -0.2512
      8 C         143.4806  139.8948  156.8389 C.2     1  UNL1        0.3194
      9 N         143.6232  141.3871  156.8883 N.am    1  UNL1       -0.2893
     10 N         143.5906  139.1738  155.5281 N.am    1  UNL1       -0.1693
     11 H         143.7890  141.8934  156.0604 H       1  UNL1        0.1509
     12 H         143.7564  139.6801  154.7002 H       1  UNL1        0.1781
     13 S         143.4479  137.6814  155.4787 S.O2    1  UNL1        0.0768
     14 O         144.9302  137.5339  155.6544 O.2     1  UNL1       -0.1498
     15 O         141.9656  137.8289  155.3029 O.2     1  UNL1       -0.1498
     16 C         143.3053  136.1891  155.4293 C.ar    1  UNL1        0.1254
     17 C         142.6558  135.5365  154.2450 C.ar    1  UNL1        0.0225
     18 C         142.5132  134.0441  154.1957 C.ar    1  UNL1        0.0310
     19 C         143.0200  133.2043  155.3305 C.ar    1  UNL1        0.1402
     20 F         142.8773  131.7119  155.2811 F       1  UNL1       -0.2042
     21 C         143.6694  133.8569  156.5147 C.ar    1  UNL1        0.0310
     22 C         143.8120  135.3492  156.5641 C.ar    1  UNL1        0.0225
     23 C         143.1833  144.2710  162.1314 C.3     1  UNL1        0.1007
     24 C         142.1145  143.8869  163.1112 C.ar    1  UNL1        0.0129
     25 C         141.2884  144.8334  163.9308 C.ar    1  UNL1        0.0176
     26 C         140.3474  144.0205  164.7696 C.ar    1  UNL1        0.0799
     27 N         140.5919  142.5714  164.4685 N.ar    1  UNL1       -0.3038
     28 C         141.6841  142.4889  163.4436 C.ar    1  UNL1        0.0772
     29 C         139.8710  141.4091  165.0842 C.ar    1  UNL1        0.0640
     30 C         140.1909  140.9859  166.4872 C.ar    1  UNL1        0.0175
     31 C         139.4700  139.8236  167.1029 C.ar    1  UNL1        0.0053
     32 C         138.4290  139.0844  166.3156 C.ar    1  UNL1        0.0715
     33 C         138.1090  139.5075  164.9125 C.ar    1  UNL1        0.0053
     34 C         138.8300  140.6699  164.2968 C.ar    1  UNL1        0.0175
     35 C         137.7080  137.9221  166.9313 C.3     1  UNL1        0.4186
     36 F         136.9871  136.7596  167.5469 F       1  UNL1       -0.1659
     37 F         137.2664  138.7974  168.0665 F       1  UNL1       -0.1659
     38 F         138.1497  137.0467  165.7960 F       1  UNL1       -0.1659
@<TRIPOS>BOND
     1     7     8    2
     2     8     9   am
     3     9     1    1
     4     1     2    1
     5     2     3    1
     6     3     4    1
     7     4    23    1
     8    23    24    1
     9    24    25   ar
    10    25    26   ar
    11    26    27   ar
    12    27    29    1
    13    29    30   ar
    14    30    31   ar
    15    31    32   ar
    16    32    35    1
    17    35    36    1
    18    35    37    1
    19    35    38    1
    20    32    33   ar
    21    33    34   ar
    22    27    28   ar
    23     4     5    1
    24     5     6    1
    25     8    10   am
    26    10    13    1
    27    13    14    2
    28    13    15    2
    29    13    16    1
    30    16    17   ar
    31    17    18   ar
    32    18    19   ar
    33    19    20    1
    34    19    21   ar
    35    21    22   ar
    36     6     1    1
    37    22    16   ar
    38    28    24   ar
    39    34    29   ar
    40     9    11    1
    41    10    12    1
@<TRIPOS>MOLECULE
*****
 38 41 0 0 0
SMALL
GASTEIGER

@<TRIPOS>ATOM
      1 C         140.4098  140.2574  156.4287 C.3     1  UNL1        0.0759
      2 C         141.0338  138.9407  156.7848 C.3     1  UNL1        0.0370
      3 C         142.1282  138.8821  157.8089 C.3     1  UNL1        0.0741
      4 N         142.5986  140.1401  158.4768 N.3     1  UNL1       -0.2688
      5 C         141.9746  141.4568  158.1206 C.3     1  UNL1        0.0741
      6 C         140.8802  141.5154  157.0966 C.3     1  UNL1        0.0370
      7 O         137.5396  140.1205  157.2910 O.2     1  UNL1       -0.2512
      8 C         137.8802  140.2476  155.8358 C.2     1  UNL1        0.3194
      9 N         139.3153  140.3161  155.4046 N.am    1  UNL1       -0.2893
     10 N         136.7858  140.3063  154.8116 N.am    1  UNL1       -0.1693
     11 H         139.5388  140.3995  154.4494 H       1  UNL1        0.1509
     12 H         137.0093  140.3898  153.8565 H       1  UNL1        0.1781
     13 S         135.3507  140.2379  155.2428 S.O2    1  UNL1        0.0768
     14 O         135.3128  141.7333  155.3541 O.2     1  UNL1       -0.1498
     15 O         135.3886  138.7425  155.1316 O.2     1  UNL1       -0.1498
     16 C         133.9157  140.1695  155.6740 C.ar    1  UNL1        0.1254
     17 C         132.9759  141.2876  155.3327 C.ar    1  UNL1        0.0225
     18 C         131.5408  141.2191  155.7639 C.ar    1  UNL1        0.0310
     19 C         131.0456  140.0325  156.5364 C.ar    1  UNL1        0.1402
     20 F         129.6105  139.9641  156.9676 F       1  UNL1       -0.2042
     21 C         131.9854  138.9144  156.8777 C.ar    1  UNL1        0.0310
     22 C         133.4204  138.9828  156.4465 C.ar    1  UNL1        0.0225
     23 C         143.6931  140.0814  159.5009 C.3     1  UNL1        0.1007
     24 C         143.3553  139.8873  160.9494 C.ar    1  UNL1        0.0129
     25 C         144.3000  140.0446  162.1038 C.ar    1  UNL1        0.0176
     26 C         143.5420  139.7564  163.3657 C.ar    1  UNL1        0.0799
     27 N         142.1287  139.4211  162.9912 N.ar    1  UNL1       -0.3038
     28 C         142.0133  139.5020  161.4978 C.ar    1  UNL1        0.0772
     29 C         141.0247  139.0670  163.9429 C.ar    1  UNL1        0.0640
     30 C         140.7314  139.9555  165.1153 C.ar    1  UNL1        0.0175
     31 C         139.6274  139.6014  166.0670 C.ar    1  UNL1        0.0053
     32 C         138.8167  138.3589  165.8464 C.ar    1  UNL1        0.0715
     33 C         139.1099  137.4704  164.6740 C.ar    1  UNL1        0.0053
     34 C         140.2139  137.8245  163.7222 C.ar    1  UNL1        0.0175
     35 C         137.7127  138.0049  166.7981 C.3     1  UNL1        0.4186
     36 F         136.6087  137.6507  167.7498 F       1  UNL1       -0.1659
     37 F         137.7384  139.4005  167.3471 F       1  UNL1       -0.1659
     38 F         137.6871  136.6091  166.2491 F       1  UNL1       -0.1659
@<TRIPOS>BOND
     1     7     8    2
     2     8     9   am
     3     9     1    1
     4     1     2    1
     5     2     3    1
     6     3     4    1
     7     4    23    1
     8    23    24    1
     9    24    25   ar
    10    25    26   ar
    11    26    27   ar
    12    27    29    1
    13    29    30   ar
    14    30    31   ar
    15    31    32   ar
    16    32    35    1
    17    35    36    1
    18    35    37    1
    19    35    38    1
    20    32    33   ar
    21    33    34   ar
    22    27    28   ar
    23     4     5    1
    24     5     6    1
    25     8    10   am
    26    10    13    1
    27    13    14    2
    28    13    15    2
    29    13    16    1
    30    16    17   ar
    31    17    18   ar
    32    18    19   ar
    33    19    20    1
    34    19    21   ar
    35    21    22   ar
    36     6     1    1
    37    22    16   ar
    38    28    24   ar
    39    34    29   ar
    40     9    11    1
    41    10    12    1
@<TRIPOS>MOLECULE
*****
 38 41 0 0 0
SMALL
GASTEIGER

@<TRIPOS>ATOM
      1 C         142.8124  141.0856  158.4523 C.3     1  UNL1        0.0759
      2 C         141.6508  141.3170  159.3726 C.3     1  UNL1        0.0370
      3 C         141.8189  142.1749  160.5914 C.3     1  UNL1        0.0741
      4 N         143.1488  142.8014  160.8899 N.3     1  UNL1       -0.2688
      5 C         144.3104  142.5700  159.9696 C.3     1  UNL1        0.0741
      6 C         144.1422  141.7121  158.7508 C.3     1  UNL1        0.0370
      7 O         143.0072  138.1006  158.6804 O.2     1  UNL1       -0.2512
      8 C         142.7416  138.7352  157.3474 C.2     1  UNL1        0.3194
      9 N         142.6443  140.2276  157.2333 N.am    1  UNL1       -0.2893
     10 N         142.5735  137.8772  156.1285 N.am    1  UNL1       -0.1693
     11 H         142.4700  140.6441  156.3585 H       1  UNL1        0.1509
     12 H         142.3992  138.2937  155.2536 H       1  UNL1        0.1781
     13 S         142.6709  136.3847  156.2426 S.O2    1  UNL1        0.0768
     14 O         144.1602  136.4699  156.0857 O.2     1  UNL1       -0.1498
     15 O         141.1816  136.2996  156.3995 O.2     1  UNL1       -0.1498
     16 C         142.7683  134.8923  156.3567 C.ar    1  UNL1        0.1254
     17 C         143.7783  134.2748  157.2779 C.ar    1  UNL1        0.0225
     18 C         143.8756  132.7823  157.3920 C.ar    1  UNL1        0.0310
     19 C         142.9630  131.9073  156.5848 C.ar    1  UNL1        0.1402
     20 F         143.0604  130.4149  156.6989 F       1  UNL1       -0.2042
     21 C         141.9530  132.5248  155.6636 C.ar    1  UNL1        0.0310
     22 C         141.8556  134.0172  155.5495 C.ar    1  UNL1        0.0225
     23 C         143.3169  143.6594  162.1089 C.3     1  UNL1        0.1007
     24 C         142.3063  143.5965  163.2155 C.ar    1  UNL1        0.0129
     25 C         141.1188  144.4985  163.3774 C.ar    1  UNL1        0.0176
     26 C         140.3844  144.0800  164.6165 C.ar    1  UNL1        0.0799
     27 N         141.1180  142.9193  165.2205 N.ar    1  UNL1       -0.3038
     28 C         142.3058  142.6205  164.3547 C.ar    1  UNL1        0.0772
     29 C         140.7316  142.1863  166.4708 C.ar    1  UNL1        0.0640
     30 C         140.3391  140.7403  166.4015 C.ar    1  UNL1        0.0175
     31 C         139.9527  140.0072  167.6518 C.ar    1  UNL1        0.0053
     32 C         139.9588  140.7201  168.9715 C.ar    1  UNL1        0.0715
     33 C         140.3514  142.1662  169.0409 C.ar    1  UNL1        0.0053
     34 C         140.7378  142.8993  167.7906 C.ar    1  UNL1        0.0175
     35 C         139.5725  139.9871  170.2218 C.3     1  UNL1        0.4186
     36 F         139.1860  139.2540  171.4721 F       1  UNL1       -0.1659
     37 F         140.9664  139.4447  170.3345 F       1  UNL1       -0.1659
     38 F         138.1784  140.5294  170.1090 F       1  UNL1       -0.1659
@<TRIPOS>BOND
     1     7     8    2
     2     8     9   am
     3     9     1    1
     4     1     2    1
     5     2     3    1
     6     3     4    1
     7     4    23    1
     8    23    24    1
     9    24    25   ar
    10    25    26   ar
    11    26    27   ar
    12    27    29    1
    13    29    30   ar
    14    30    31   ar
    15    31    32   ar
    16    32    35    1
    17    35    36    1
    18    35    37    1
    19    35    38    1
    20    32    33   ar
    21    33    34   ar
    22    27    28   ar
    23     4     5    1
    24     5     6    1
    25     8    10   am
    26    10    13    1
    27    13    14    2
    28    13    15    2
    29    13    16    1
    30    16    17   ar
    31    17    18   ar
    32    18    19   ar
    33    19    20    1
    34    19    21   ar
    35    21    22   ar
    36     6     1    1
    37    22    16   ar
    38    28    24   ar
    39    34    29   ar
    40     9    11    1
    41    10    12    1
@<TRIPOS>MOLECULE
*****
 38 41 0 0 0
SMALL
GASTEIGER

@<TRIPOS>ATOM
      1 C         143.4387  139.0196  162.2160 C.3     1  UNL1        0.0759
      2 C         142.3579  138.0904  161.7490 C.3     1  UNL1        0.0370
      3 C         141.9469  138.0828  160.3064 C.3     1  UNL1        0.0741
      4 N         142.6168  139.0046  159.3309 N.3     1  UNL1       -0.2688
      5 C         143.6977  139.9338  159.7979 C.3     1  UNL1        0.0741
      6 C         144.1086  139.9413  161.2405 C.3     1  UNL1        0.0370
      7 O         141.7507  140.4396  164.2493 O.2     1  UNL1       -0.2512
      8 C         143.0058  139.7371  164.6752 C.2     1  UNL1        0.3194
      9 N         143.8498  139.0271  163.6586 N.am    1  UNL1       -0.2893
     10 N         143.4168  139.7447  166.1178 N.am    1  UNL1       -0.1693
     11 H         144.6735  138.5661  163.9382 H       1  UNL1        0.1509
     12 H         144.2405  139.2836  166.3974 H       1  UNL1        0.1781
     13 S         142.5728  140.4547  167.1344 S.O2    1  UNL1        0.0768
     14 O         142.0217  139.1383  167.5963 O.2     1  UNL1       -0.1498
     15 O         143.1239  141.7711  166.6726 O.2     1  UNL1       -0.1498
     16 C         141.7288  141.1646  168.1511 C.ar    1  UNL1        0.1254
     17 C         142.1730  142.4867  168.7031 C.ar    1  UNL1        0.0225
     18 C         141.3290  143.1967  169.7198 C.ar    1  UNL1        0.0310
     19 C         140.0408  142.5846  170.1843 C.ar    1  UNL1        0.1402
     20 F         139.1968  143.2946  171.2010 F       1  UNL1       -0.2042
     21 C         139.5966  141.2625  169.6323 C.ar    1  UNL1        0.0310
     22 C         140.4406  140.5525  168.6156 C.ar    1  UNL1        0.0225
     23 C         142.2057  138.9970  157.8883 C.3     1  UNL1        0.1007
     24 C         142.0592  137.6956  157.1570 C.ar    1  UNL1        0.0129
     25 C         140.9618  137.3423  156.1973 C.ar    1  UNL1        0.0176
     26 C         141.2087  135.9473  155.7042 C.ar    1  UNL1        0.0799
     27 N         142.4587  135.4386  156.3590 N.ar    1  UNL1       -0.3038
     28 C         142.9843  136.5191  157.2569 C.ar    1  UNL1        0.0772
     29 C         143.0748  134.0867  156.1523 C.ar    1  UNL1        0.0640
     30 C         142.7416  133.2902  154.9258 C.ar    1  UNL1        0.0175
     31 C         143.3577  131.9383  154.7190 C.ar    1  UNL1        0.0053
     32 C         144.3070  131.3829  155.7388 C.ar    1  UNL1        0.0715
     33 C         144.6403  132.1793  156.9654 C.ar    1  UNL1        0.0053
     34 C         144.0242  133.5312  157.1722 C.ar    1  UNL1        0.0175
     35 C         144.9232  130.0310  155.5321 C.3     1  UNL1        0.4186
     36 F         145.5393  128.6791  155.3254 F       1  UNL1       -0.1659
     37 F         144.9033  130.2489  154.0481 F       1  UNL1       -0.1659
     38 F         144.9431  129.8131  157.0161 F       1  UNL1       -0.1659
@<TRIPOS>BOND
     1     7     8    2
     2     8     9   am
     3     9     1    1
     4     1     2    1
     5     2     3    1
     6     3     4    1
     7     4    23    1
     8    23    24    1
     9    24    25   ar
    10    25    26   ar
    11    26    27   ar
    12    27    29    1
    13    29    30   ar
    14    30    31   ar
    15    31    32   ar
    16    32    35    1
    17    35    36    1
    18    35    37    1
    19    35    38    1
    20    32    33   ar
    21    33    34   ar
    22    27    28   ar
    23     4     5    1
    24     5     6    1
    25     8    10   am
    26    10    13    1
    27    13    14    2
    28    13    15    2
    29    13    16    1
    30    16    17   ar
    31    17    18   ar
    32    18    19   ar
    33    19    20    1
    34    19    21   ar
    35    21    22   ar
    36     6     1    1
    37    22    16   ar
    38    28    24   ar
    39    34    29   ar
    40     9    11    1
    41    10    12    1
@<TRIPOS>MOLECULE
*****
 38 41 0 0 0
SMALL
GASTEIGER

@<TRIPOS>ATOM
      1 C         140.6963  138.1660  161.8207 C.3     1  UNL1        0.0759
      2 C         142.1396  137.9695  161.4629 C.3     1  UNL1        0.0370
      3 C         142.5786  138.0732  160.0324 C.3     1  UNL1        0.0741
      4 N         141.5741  138.3735  158.9596 N.3     1  UNL1       -0.2688
      5 C         140.1307  138.5700  159.3173 C.3     1  UNL1        0.0741
      6 C         139.6918  138.4663  160.7479 C.3     1  UNL1        0.0370
      7 O         141.6929  140.1453  163.8429 O.2     1  UNL1       -0.2512
      8 C         140.7556  139.0519  164.2624 C.2     1  UNL1        0.3194
      9 N         140.2573  138.0623  163.2513 N.am    1  UNL1       -0.2893
     10 N         140.3166  138.9482  165.6930 N.am    1  UNL1       -0.1693
     11 H         139.6421  137.3447  163.5266 H       1  UNL1        0.1509
     12 H         139.7014  138.2305  165.9683 H       1  UNL1        0.1781
     13 S         140.8149  139.9378  166.7040 S.O2    1  UNL1        0.0768
     14 O         142.0582  139.1199  166.8918 O.2     1  UNL1       -0.1498
     15 O         139.5717  140.7557  166.5162 O.2     1  UNL1       -0.1498
     16 C         141.3133  140.9274  167.7151 C.ar    1  UNL1        0.1254
     17 C         140.3743  141.9416  168.2979 C.ar    1  UNL1        0.0225
     18 C         140.8726  142.9312  169.3090 C.ar    1  UNL1        0.0310
     19 C         142.3100  142.9067  169.7373 C.ar    1  UNL1        0.1402
     20 F         142.8083  143.8963  170.7483 F       1  UNL1       -0.2042
     21 C         143.2490  141.8925  169.1544 C.ar    1  UNL1        0.0310
     22 C         142.7507  140.9029  168.1434 C.ar    1  UNL1        0.0225
     23 C         142.0131  138.4772  157.5289 C.3     1  UNL1        0.1007
     24 C         142.7615  137.3451  156.8901 C.ar    1  UNL1        0.0129
     25 C         143.6897  137.4527  155.7167 C.ar    1  UNL1        0.0176
     26 C         144.2150  136.0807  155.4139 C.ar    1  UNL1        0.0799
     27 N         143.6114  135.1251  156.4001 N.ar    1  UNL1       -0.3038
     28 C         142.7131  135.9066  157.3125 C.ar    1  UNL1        0.0772
     29 C         143.8621  133.6476  156.4630 C.ar    1  UNL1        0.0640
     30 C         143.4437  132.7667  155.3233 C.ar    1  UNL1        0.0175
     31 C         143.6945  131.2892  155.3861 C.ar    1  UNL1        0.0053
     32 C         144.3636  130.6925  156.5886 C.ar    1  UNL1        0.0715
     33 C         144.7820  131.5733  157.7284 C.ar    1  UNL1        0.0053
     34 C         144.5313  133.0509  157.6656 C.ar    1  UNL1        0.0175
     35 C         144.6143  129.2149  156.6515 C.3     1  UNL1        0.4186
     36 F         144.8650  127.7374  156.7142 F       1  UNL1       -0.1659
     37 F         143.7882  129.1279  157.9005 F       1  UNL1       -0.1659
     38 F         145.4404  129.3020  155.4024 F       1  UNL1       -0.1659
@<TRIPOS>BOND
     1     7     8    2
     2     8     9   am
     3     9     1    1
     4     1     2    1
     5     2     3    1
     6     3     4    1
     7     4    23    1
     8    23    24    1
     9    24    25   ar
    10    25    26   ar
    11    26    27   ar
    12    27    29    1
    13    29    30   ar
    14    30    31   ar
    15    31    32   ar
    16    32    35    1
    17    35    36    1
    18    35    37    1
    19    35    38    1
    20    32    33   ar
    21    33    34   ar
    22    27    28   ar
    23     4     5    1
    24     5     6    1
    25     8    10   am
    26    10    13    1
    27    13    14    2
    28    13    15    2
    29    13    16    1
    30    16    17   ar
    31    17    18   ar
    32    18    19   ar
    33    19    20    1
    34    19    21   ar
    35    21    22   ar
    36     6     1    1
    37    22    16   ar
    38    28    24   ar
    39    34    29   ar
    40     9    11    1
    41    10    12    1
@<TRIPOS>MOLECULE
*****
 38 41 0 0 0
SMALL
GASTEIGER

@<TRIPOS>ATOM
      1 C         143.9666  139.0694  161.1899 C.3     1  UNL1        0.0759
      2 C         143.3364  137.7783  160.7588 C.3     1  UNL1        0.0370
      3 C         142.8689  137.6076  159.3438 C.3     1  UNL1        0.0741
      4 N         143.0317  138.7280  158.3598 N.3     1  UNL1       -0.2688
      5 C         143.6620  140.0191  158.7909 C.3     1  UNL1        0.0741
      6 C         144.1294  140.1898  160.2059 C.3     1  UNL1        0.0370
      7 O         142.0465  139.9895  163.3033 O.2     1  UNL1       -0.2512
      8 C         143.4741  139.7002  163.6616 C.2     1  UNL1        0.3194
      9 N         144.4341  139.2401  162.6049 N.am    1  UNL1       -0.2893
     10 N         143.9416  139.8709  165.0767 N.am    1  UNL1       -0.1693
     11 H         145.3711  139.0503  162.8401 H       1  UNL1        0.1509
     12 H         144.8786  139.6810  165.3119 H       1  UNL1        0.1781
     13 S         142.9816  140.3309  166.1334 S.O2    1  UNL1        0.0768
     14 O         142.5914  138.9071  166.3988 O.2     1  UNL1       -0.1498
     15 O         143.3717  141.7548  165.8680 O.2     1  UNL1       -0.1498
     16 C         142.0215  140.7910  167.1901 C.ar    1  UNL1        0.1254
     17 C         141.5177  139.8224  168.2187 C.ar    1  UNL1        0.0225
     18 C         140.5576  140.2825  169.2754 C.ar    1  UNL1        0.0310
     19 C         140.1014  141.7111  169.3035 C.ar    1  UNL1        0.1402
     20 F         139.1414  142.1712  170.3602 F       1  UNL1       -0.2042
     21 C         140.6052  142.6797  168.2749 C.ar    1  UNL1        0.0310
     22 C         141.5652  142.2197  167.2182 C.ar    1  UNL1        0.0225
     23 C         142.5642  138.5573  156.9448 C.3     1  UNL1        0.1007
     24 C         142.3022  137.1837  156.4021 C.ar    1  UNL1        0.0129
     25 C         141.0282  136.7166  155.7627 C.ar    1  UNL1        0.0176
     26 C         141.2067  135.2803  155.3689 C.ar    1  UNL1        0.0799
     27 N         142.5911  134.8596  155.7649 N.ar    1  UNL1       -0.3038
     28 C         143.2680  136.0360  156.4034 C.ar    1  UNL1        0.0772
     29 C         143.1927  133.5012  155.5585 C.ar    1  UNL1        0.0640
     30 C         144.2945  133.0244  156.4577 C.ar    1  UNL1        0.0175
     31 C         144.8961  131.6660  156.2514 C.ar    1  UNL1        0.0053
     32 C         144.3960  130.7843  155.1459 C.ar    1  UNL1        0.0715
     33 C         143.2941  131.2610  154.2466 C.ar    1  UNL1        0.0053
     34 C         142.6925  132.6194  154.4529 C.ar    1  UNL1        0.0175
     35 C         144.9976  129.4258  154.9395 C.3     1  UNL1        0.4186
     36 F         145.5993  128.0673  154.7331 F       1  UNL1       -0.1659
     37 F         144.8860  129.1530  156.4103 F       1  UNL1       -0.1659
     38 F         145.1092  129.6986  153.4687 F       1  UNL1       -0.1659
@<TRIPOS>BOND
     1     7     8    2
     2     8     9   am
     3     9     1    1
     4     1     2    1
     5     2     3    1
     6     3     4    1
     7     4    23    1
     8    23    24    1
     9    24    25   ar
    10    25    26   ar
    11    26    27   ar
    12    27    29    1
    13    29    30   ar
    14    30    31   ar
    15    31    32   ar
    16    32    35    1
    17    35    36    1
    18    35    37    1
    19    35    38    1
    20    32    33   ar
    21    33    34   ar
    22    27    28   ar
    23     4     5    1
    24     5     6    1
    25     8    10   am
    26    10    13    1
    27    13    14    2
    28    13    15    2
    29    13    16    1
    30    16    17   ar
    31    17    18   ar
    32    18    19   ar
    33    19    20    1
    34    19    21   ar
    35    21    22   ar
    36     6     1    1
    37    22    16   ar
    38    28    24   ar
    39    34    29   ar
    40     9    11    1
    41    10    12    1
@<TRIPOS>MOLECULE
*****
 38 41 0 0 0
SMALL
GASTEIGER

@<TRIPOS>ATOM
      1 C         141.5858  143.6025  158.7640 C.3     1  UNL1        0.0759
      2 C         141.4754  144.0270  160.1984 C.3     1  UNL1        0.0370
      3 C         142.5535  143.6594  161.1743 C.3     1  UNL1        0.0741
      4 N         143.7419  142.8673  160.7159 N.3     1  UNL1       -0.2688
      5 C         143.8523  142.4428  159.2815 C.3     1  UNL1        0.0741
      6 C         142.7743  142.8104  158.3055 C.3     1  UNL1        0.0370
      7 O         141.6057  146.3007  157.4528 O.2     1  UNL1       -0.2512
      8 C         140.5177  145.3192  157.1324 C.2     1  UNL1        0.3194
      9 N         140.5077  143.9701  157.7879 N.am    1  UNL1       -0.2893
     10 N         139.4396  145.6868  156.1563 N.am    1  UNL1       -0.1693
     11 H         139.7936  143.3258  157.5775 H       1  UNL1        0.1509
     12 H         138.7254  145.0425  155.9459 H       1  UNL1        0.1781
     13 S         139.4495  147.0359  155.5007 S.O2    1  UNL1        0.0768
     14 O         138.8182  147.6343  156.7227 O.2     1  UNL1       -0.1498
     15 O         140.0808  146.4374  154.2788 O.2     1  UNL1       -0.1498
     16 C         139.4595  148.3850  154.8452 C.ar    1  UNL1        0.1254
     17 C         138.8089  149.5536  155.5242 C.ar    1  UNL1        0.0225
     18 C         138.8189  150.9027  154.8686 C.ar    1  UNL1        0.0310
     19 C         139.4795  151.0832  153.5341 C.ar    1  UNL1        0.1402
     20 F         139.4894  152.4323  152.8785 F       1  UNL1       -0.2042
     21 C         140.1300  149.9146  152.8551 C.ar    1  UNL1        0.0310
     22 C         140.1201  148.5655  153.5106 C.ar    1  UNL1        0.0225
     23 C         144.8200  142.4997  161.6920 C.3     1  UNL1        0.1007
     24 C         144.5018  141.6208  162.8651 C.ar    1  UNL1        0.0129
     25 C         144.7748  140.1492  162.9640 C.ar    1  UNL1        0.0176
     26 C         144.2964  139.6781  164.3054 C.ar    1  UNL1        0.0799
     27 N         143.7277  140.8586  165.0355 N.ar    1  UNL1       -0.3038
     28 C         143.8547  142.0593  164.1454 C.ar    1  UNL1        0.0772
     29 C         143.1361  140.8415  166.4138 C.ar    1  UNL1        0.0640
     30 C         142.9217  142.1283  167.1540 C.ar    1  UNL1        0.0175
     31 C         142.3300  142.1112  168.5323 C.ar    1  UNL1        0.0053
     32 C         141.9527  140.8072  169.1703 C.ar    1  UNL1        0.0715
     33 C         142.1670  139.5203  168.4301 C.ar    1  UNL1        0.0053
     34 C         142.7587  139.5374  167.0518 C.ar    1  UNL1        0.0175
     35 C         141.3610  140.7901  170.5485 C.3     1  UNL1        0.4186
     36 F         140.7694  140.7730  171.9268 F       1  UNL1       -0.1659
     37 F         140.7944  139.4258  170.2883 F       1  UNL1       -0.1659
     38 F         141.9277  142.1544  170.8088 F       1  UNL1       -0.1659
@<TRIPOS>BOND
     1     7     8    2
     2     8     9   am
     3     9     1    1
     4     1     2    1
     5     2     3    1
     6     3     4    1
     7     4    23    1
     8    23    24    1
     9    24    25   ar
    10    25    26   ar
    11    26    27   ar
    12    27    29    1
    13    29    30   ar
    14    30    31   ar
    15    31    32   ar
    16    32    35    1
    17    35    36    1
    18    35    37    1
    19    35    38    1
    20    32    33   ar
    21    33    34   ar
    22    27    28   ar
    23     4     5    1
    24     5     6    1
    25     8    10   am
    26    10    13    1
    27    13    14    2
    28    13    15    2
    29    13    16    1
    30    16    17   ar
    31    17    18   ar
    32    18    19   ar
    33    19    20    1
    34    19    21   ar
    35    21    22   ar
    36     6     1    1
    37    22    16   ar
    38    28    24   ar
    39    34    29   ar
    40     9    11    1
    41    10    12    1
@<TRIPOS>MOLECULE
*****
 38 41 0 0 0
SMALL
GASTEIGER

@<TRIPOS>ATOM
      1 C         138.4804  140.2578  161.2180 C.3     1  UNL1        0.0759
      2 C         138.7934  138.8945  160.6763 C.3     1  UNL1        0.0370
      3 C         139.3122  138.7446  159.2769 C.3     1  UNL1        0.0741
      4 N         139.5179  139.9579  158.4192 N.3     1  UNL1       -0.2688
      5 C         139.2049  141.3211  158.9609 C.3     1  UNL1        0.0741
      6 C         138.6861  141.4711  160.3603 C.3     1  UNL1        0.0370
      7 O         140.3423  139.9457  163.5495 O.2     1  UNL1       -0.2512
      8 C         138.8925  140.2518  163.7832 C.2     1  UNL1        0.3194
      9 N         137.9616  140.4078  162.6174 N.am    1  UNL1       -0.2893
     10 N         138.3738  140.4018  165.1826 N.am    1  UNL1       -0.1693
     11 H         137.0101  140.6087  162.7708 H       1  UNL1        0.1509
     12 H         137.4223  140.6027  165.3360 H       1  UNL1        0.1781
     13 S         139.3047  140.2457  166.3484 S.O2    1  UNL1        0.0768
     14 O         139.6530  141.7023  166.2652 O.2     1  UNL1       -0.1498
     15 O         138.9564  138.7891  166.4315 O.2     1  UNL1       -0.1498
     16 C         140.2356  140.0897  167.5141 C.ar    1  UNL1        0.1254
     17 C         141.7042  139.8932  167.2801 C.ar    1  UNL1        0.0225
     18 C         142.6352  139.7372  168.4459 C.ar    1  UNL1        0.0310
     19 C         142.0975  139.7775  169.8456 C.ar    1  UNL1        0.1402
     20 F         143.0285  139.6215  171.0113 F       1  UNL1       -0.2042
     21 C         140.6290  139.9739  170.0796 C.ar    1  UNL1        0.0310
     22 C         139.6980  140.1300  168.9139 C.ar    1  UNL1        0.0225
     23 C         140.0367  139.8079  157.0197 C.3     1  UNL1        0.1007
     24 C         140.1608  138.4439  156.4081 C.ar    1  UNL1        0.0129
     25 C         139.1783  137.8046  155.4721 C.ar    1  UNL1        0.0176
     26 C         139.6996  136.4454  155.1105 C.ar    1  UNL1        0.0799
     27 N         141.0043  136.2446  155.8230 N.ar    1  UNL1       -0.3038
     28 C         141.2893  137.4798  156.6249 C.ar    1  UNL1        0.0772
     29 C         141.8715  135.0231  155.7470 C.ar    1  UNL1        0.0640
     30 C         141.4130  133.8249  154.9699 C.ar    1  UNL1        0.0175
     31 C         142.2803  132.6034  154.8939 C.ar    1  UNL1        0.0053
     32 C         143.6061  132.5802  155.5948 C.ar    1  UNL1        0.0715
     33 C         144.0648  133.7784  156.3719 C.ar    1  UNL1        0.0053
     34 C         143.1975  134.9999  156.4480 C.ar    1  UNL1        0.0175
     35 C         144.4734  131.3587  155.5187 C.3     1  UNL1        0.4186
     36 F         145.3406  130.1372  155.4426 F       1  UNL1       -0.1659
     37 F         145.4047  131.9569  156.5310 F       1  UNL1       -0.1659
     38 F         143.5421  130.7604  154.5064 F       1  UNL1       -0.1659
@<TRIPOS>BOND
     1     7     8    2
     2     8     9   am
     3     9     1    1
     4     1     2    1
     5     2     3    1
     6     3     4    1
     7     4    23    1
     8    23    24    1
     9    24    25   ar
    10    25    26   ar
    11    26    27   ar
    12    27    29    1
    13    29    30   ar
    14    30    31   ar
    15    31    32   ar
    16    32    35    1
    17    35    36    1
    18    35    37    1
    19    35    38    1
    20    32    33   ar
    21    33    34   ar
    22    27    28   ar
    23     4     5    1
    24     5     6    1
    25     8    10   am
    26    10    13    1
    27    13    14    2
    28    13    15    2
    29    13    16    1
    30    16    17   ar
    31    17    18   ar
    32    18    19   ar
    33    19    20    1
    34    19    21   ar
    35    21    22   ar
    36     6     1    1
    37    22    16   ar
    38    28    24   ar
    39    34    29   ar
    40     9    11    1
    41    10    12    1
@<TRIPOS>MOLECULE
*****
 38 41 0 0 0
SMALL
GASTEIGER

@<TRIPOS>ATOM
      1 C         140.1759  140.3346  157.3841 C.3     1  UNL1        0.0759
      2 C         140.2576  141.4152  158.4212 C.3     1  UNL1        0.0370
      3 C         141.2195  141.2858  159.5649 C.3     1  UNL1        0.0741
      4 N         142.0996  140.0758  159.6715 N.3     1  UNL1       -0.2688
      5 C         142.0179  138.9952  158.6344 C.3     1  UNL1        0.0741
      6 C         141.0560  139.1246  157.4907 C.3     1  UNL1        0.0370
      7 O         137.2215  140.1916  157.8852 O.2     1  UNL1       -0.2512
      8 C         137.7368  140.3924  156.4909 C.2     1  UNL1        0.3194
      9 N         139.2140  140.4639  156.2403 N.am    1  UNL1       -0.2893
     10 N         136.7749  140.5218  155.3472 N.am    1  UNL1       -0.1693
     11 H         139.5522  140.5957  155.3252 H       1  UNL1        0.1509
     12 H         137.1132  140.6536  154.4320 H       1  UNL1        0.1781
     13 S         135.2978  140.4503  155.5977 S.O2    1  UNL1        0.0768
     14 O         135.3499  138.9559  155.4786 O.2     1  UNL1       -0.1498
     15 O         135.2457  141.9446  155.7169 O.2     1  UNL1       -0.1498
     16 C         133.8206  140.3788  155.8483 C.ar    1  UNL1        0.1254
     17 C         133.2452  139.2266  156.6173 C.ar    1  UNL1        0.0225
     18 C         131.7680  139.1551  156.8679 C.ar    1  UNL1        0.0310
     19 C         130.8662  140.2358  156.3494 C.ar    1  UNL1        0.1402
     20 F         129.3890  140.1643  156.6000 F       1  UNL1       -0.2042
     21 C         131.4416  141.3880  155.5804 C.ar    1  UNL1        0.0310
     22 C         132.9187  141.4595  155.3299 C.ar    1  UNL1        0.0225
     23 C         143.0615  139.9465  160.8152 C.3     1  UNL1        0.1007
     24 C         142.6060  139.3515  162.1146 C.ar    1  UNL1        0.0129
     25 C         142.2134  137.9214  162.3399 C.ar    1  UNL1        0.0176
     26 C         141.8279  137.7681  163.7813 C.ar    1  UNL1        0.0799
     27 N         141.9823  139.1035  164.4470 N.ar    1  UNL1       -0.3038
     28 C         142.4632  140.0820  163.4169 C.ar    1  UNL1        0.0772
     29 C         141.7046  139.4069  165.8895 C.ar    1  UNL1        0.0640
     30 C         140.3387  139.8614  166.3108 C.ar    1  UNL1        0.0175
     31 C         140.0610  140.1649  167.7533 C.ar    1  UNL1        0.0053
     32 C         141.1492  140.0139  168.7744 C.ar    1  UNL1        0.0715
     33 C         142.5152  139.5594  168.3532 C.ar    1  UNL1        0.0053
     34 C         142.7929  139.2559  166.9107 C.ar    1  UNL1        0.0175
     35 C         140.8714  140.3173  170.2169 C.3     1  UNL1        0.4186
     36 F         140.5938  140.6208  171.6594 F       1  UNL1       -0.1659
     37 F         139.4280  139.9635  170.0134 F       1  UNL1       -0.1659
     38 F         142.3149  140.6711  170.4204 F       1  UNL1       -0.1659
@<TRIPOS>BOND
     1     7     8    2
     2     8     9   am
     3     9     1    1
     4     1     2    1
     5     2     3    1
     6     3     4    1
     7     4    23    1
     8    23    24    1
     9    24    25   ar
    10    25    26   ar
    11    26    27   ar
    12    27    29    1
    13    29    30   ar
    14    30    31   ar
    15    31    32   ar
    16    32    35    1
    17    35    36    1
    18    35    37    1
    19    35    38    1
    20    32    33   ar
    21    33    34   ar
    22    27    28   ar
    23     4     5    1
    24     5     6    1
    25     8    10   am
    26    10    13    1
    27    13    14    2
    28    13    15    2
    29    13    16    1
    30    16    17   ar
    31    17    18   ar
    32    18    19   ar
    33    19    20    1
    34    19    21   ar
    35    21    22   ar
    36     6     1    1
    37    22    16   ar
    38    28    24   ar
    39    34    29   ar
    40     9    11    1
    41    10    12    1
