@<TRIPOS>MOLECULE
*****
 36 39 0 0 0
SMALL
GASTEIGER

@<TRIPOS>ATOM
      1 C         141.7138  140.7136  161.9267 C.3     1  UNL1        0.0447
      2 C         141.1806  142.3518  163.9704 C.2     1  UNL1        0.0815
      3 N         141.3454  142.2784  165.4595 N.2     1  UNL1       -0.2459
      4 C         141.9556  140.9494  165.7934 C.2     1  UNL1        0.0773
      5 C         142.3453  140.3236  167.0997 C.2     1  UNL1        0.0185
      6 C         142.9473  138.9500  167.1232 C.2     1  UNL1       -0.0027
      7 C         143.1596  138.2021  165.8405 C.2     1  UNL1       -0.0213
      8 C         142.7699  138.8278  164.5341 C.3     1  UNL1        0.0536
      9 C         142.1679  140.2014  164.5106 C.2     1  UNL1       -0.0026
     10 C         141.6889  141.0682  163.3840 C.2     1  UNL1       -0.0052
     11 C         141.5158  144.4194  162.4333 C.ar    1  UNL1        0.1431
     12 C         140.9432  145.5737  161.6655 C.ar    1  UNL1        0.0576
     13 C         139.4627  145.8150  161.6670 C.ar    1  UNL1        0.1020
     14 N         138.5549  144.9018  162.4364 N.ar    1  UNL1       -0.2421
     15 C         139.1275  143.7475  163.2042 C.ar    1  UNL1        0.1034
     16 C         140.6080  143.5062  163.2026 C.ar    1  UNL1        0.0704
     17 C         143.9041  145.0808  163.2134 C.3     1  UNL1        0.2525
     18 O         142.9963  144.1781  162.4317 O.3     1  UNL1       -0.4713
     19 C         140.4462  140.7454  161.1253 C.3     1  UNL1        0.0736
     20 N         139.7865  139.4625  160.7140 N.3     1  UNL1       -0.2935
     21 H         140.5001  138.7354  160.7635 H       1  UNL1        0.1236
     22 C         138.5969  138.9541  161.4730 C.3     1  UNL1        0.0956
     23 C         138.5919  138.9919  162.9726 C.ar    1  UNL1       -0.0064
     24 C         139.0906  137.8128  163.7542 C.ar    1  UNL1       -0.0029
     25 C         139.0855  137.8508  165.2538 C.ar    1  UNL1       -0.0003
     26 C         138.5819  139.0677  165.9716 C.ar    1  UNL1        0.0001
     27 C         138.0832  140.2468  165.1900 C.ar    1  UNL1       -0.0003
     28 C         138.0882  140.2090  163.6904 C.ar    1  UNL1       -0.0029
     29 C         138.5769  139.1056  167.4711 C.2     1  UNL1        0.0047
     30 C         139.3235  140.1856  168.1965 C.2     1  UNL1        0.0598
     31 C         139.3186  140.2235  169.6961 C.2     1  UNL1        0.2679
     32 O         138.0469  139.9656  170.4486 O.2     1  UNL1       -0.2681
     33 N         140.5852  140.5193  170.4431 N.am    1  UNL1       -0.1934
     34 O         140.5802  140.5572  171.9426 O.3     1  UNL1       -0.2949
     35 H         141.4199  140.6885  169.9492 H       1  UNL1        0.1825
     36 H         139.6856  140.3705  172.2677 H       1  UNL1        0.2414
@<TRIPOS>BOND
     1    17    18    1
     2    18    11    1
     3    11    12   ar
     4    12    13   ar
     5    13    14   ar
     6    14    15   ar
     7    15    16   ar
     8    16     2    1
     9     2     3    2
    10     3     4    1
    11     4     5    2
    12     5     6    1
    13     6     7    2
    14     7     8    1
    15     8     9    1
    16     9    10    2
    17    10     1    1
    18     1    19    1
    19    19    20    1
    20    20    22    1
    21    22    23    1
    22    23    24   ar
    23    24    25   ar
    24    25    26   ar
    25    26    29    1
    26    29    30    2
    27    30    31    1
    28    31    32    2
    29    31    33   am
    30    33    34    1
    31    26    27   ar
    32    27    28   ar
    33    16    11   ar
    34    10     2    1
    35    28    23   ar
    36     9     4    1
    37    20    21    1
    38    33    35    1
    39    34    36    1
@<TRIPOS>MOLECULE
*****
 36 39 0 0 0
SMALL
GASTEIGER

@<TRIPOS>ATOM
      1 C         140.3081  140.2315  161.1267 C.3     1  UNL1        0.0447
      2 C         141.9257  142.1070  162.1322 C.2     1  UNL1        0.0815
      3 N         142.8084  142.2094  163.3406 N.2     1  UNL1       -0.2459
      4 C         142.6998  140.9230  164.1044 C.2     1  UNL1        0.0773
      5 C         143.3432  140.4529  165.3753 C.2     1  UNL1        0.0185
      6 C         143.0366  139.0853  165.9097 C.2     1  UNL1       -0.0027
      7 C         142.0868  138.1878  165.1733 C.2     1  UNL1       -0.0213
      8 C         141.4435  138.6579  163.9025 C.3     1  UNL1        0.0536
      9 C         141.7500  140.0255  163.3680 C.2     1  UNL1       -0.0026
     10 C         141.2715  140.7572  162.1492 C.2     1  UNL1       -0.0052
     11 C         140.5499  144.0889  161.1684 C.ar    1  UNL1        0.1431
     12 C         140.3554  145.1499  160.1261 C.ar    1  UNL1        0.0576
     13 C         141.3423  145.2900  159.0052 C.ar    1  UNL1        0.1020
     14 N         142.5237  144.3691  158.9267 N.ar    1  UNL1       -0.2421
     15 C         142.7181  143.3081  159.9691 C.ar    1  UNL1        0.1034
     16 C         141.7312  143.1680  161.0899 C.ar    1  UNL1        0.0704
     17 C         139.4417  145.0304  163.3215 C.3     1  UNL1        0.2525
     18 O         139.5629  143.9488  162.2893 O.3     1  UNL1       -0.4713
     19 C         138.8348  140.2425  161.4090 C.3     1  UNL1        0.0736
     20 N         138.2064  141.4344  162.0681 N.3     1  UNL1       -0.2935
     21 H         137.5395  141.8223  161.4008 H       1  UNL1        0.1236
     22 C         137.4748  141.2737  163.3677 C.3     1  UNL1        0.0956
     23 C         138.2332  140.9452  164.6195 C.ar    1  UNL1       -0.0064
     24 C         139.1966  141.9401  165.1957 C.ar    1  UNL1       -0.0029
     25 C         139.9549  141.6115  166.4475 C.ar    1  UNL1       -0.0003
     26 C         139.7498  140.2880  167.1231 C.ar    1  UNL1        0.0001
     27 C         138.7864  139.2931  166.5469 C.ar    1  UNL1       -0.0003
     28 C         138.0281  139.6217  165.2951 C.ar    1  UNL1       -0.0029
     29 C         140.5082  139.9595  168.3749 C.2     1  UNL1        0.0047
     30 C         141.2788  141.0309  169.0878 C.2     1  UNL1        0.0598
     31 C         142.0372  140.7024  170.3397 C.2     1  UNL1        0.2679
     32 O         141.5761  141.2448  171.6599 O.2     1  UNL1       -0.2681
     33 N         143.2567  139.8317  170.2712 N.am    1  UNL1       -0.1934
     34 O         144.0150  139.5033  171.5231 O.3     1  UNL1       -0.2949
     35 H         143.5593  139.4757  169.4047 H       1  UNL1        0.1825
     36 H         143.5869  139.9299  172.2818 H       1  UNL1        0.2414
@<TRIPOS>BOND
     1    17    18    1
     2    18    11    1
     3    11    12   ar
     4    12    13   ar
     5    13    14   ar
     6    14    15   ar
     7    15    16   ar
     8    16     2    1
     9     2     3    2
    10     3     4    1
    11     4     5    2
    12     5     6    1
    13     6     7    2
    14     7     8    1
    15     8     9    1
    16     9    10    2
    17    10     1    1
    18     1    19    1
    19    19    20    1
    20    20    22    1
    21    22    23    1
    22    23    24   ar
    23    24    25   ar
    24    25    26   ar
    25    26    29    1
    26    29    30    2
    27    30    31    1
    28    31    32    2
    29    31    33   am
    30    33    34    1
    31    26    27   ar
    32    27    28   ar
    33    16    11   ar
    34    10     2    1
    35    28    23   ar
    36     9     4    1
    37    20    21    1
    38    33    35    1
    39    34    36    1
@<TRIPOS>MOLECULE
*****
 36 39 0 0 0
SMALL
GASTEIGER

@<TRIPOS>ATOM
      1 C         139.4993  140.2682  161.1950 C.3     1  UNL1        0.0447
      2 C         141.2946  141.9831  162.1856 C.2     1  UNL1        0.0815
      3 N         142.3171  141.9326  163.2820 N.2     1  UNL1       -0.2459
      4 C         142.2504  140.5747  163.9158 C.2     1  UNL1        0.0773
      5 C         143.0209  139.9546  165.0435 C.2     1  UNL1        0.0185
      6 C         142.7277  138.5457  165.4666 C.2     1  UNL1       -0.0027
      7 C         141.6640  137.7570  164.7620 C.2     1  UNL1       -0.0213
      8 C         140.8936  138.3771  163.6342 C.3     1  UNL1        0.0536
      9 C         141.1868  139.7860  163.2112 C.2     1  UNL1       -0.0026
     10 C         140.5961  140.6564  162.1418 C.2     1  UNL1       -0.0052
     11 C         141.7711  143.3067  160.0013 C.ar    1  UNL1        0.1431
     12 C         141.4956  144.4782  159.1060 C.ar    1  UNL1        0.0576
     13 C         140.4680  145.4975  159.4995 C.ar    1  UNL1        0.1020
     14 N         139.7160  145.3454  160.7883 N.ar    1  UNL1       -0.2421
     15 C         139.9915  144.1740  161.6837 C.ar    1  UNL1        0.1034
     16 C         141.0191  143.1546  161.2902 C.ar    1  UNL1        0.0704
     17 C         144.2528  142.5494  159.8668 C.3     1  UNL1        0.2525
     18 O         142.7988  142.2873  159.6078 O.3     1  UNL1       -0.4713
     19 C         138.1667  140.9528  161.2698 C.3     1  UNL1        0.0736
     20 N         137.2694  140.7207  162.4492 N.3     1  UNL1       -0.2935
     21 H         137.5319  139.8184  162.8458 H       1  UNL1        0.1236
     22 C         137.2511  141.7031  163.5824 C.3     1  UNL1        0.0956
     23 C         138.2403  141.5743  164.7026 C.ar    1  UNL1       -0.0064
     24 C         138.3530  140.2838  165.4590 C.ar    1  UNL1       -0.0029
     25 C         139.3423  140.1551  166.5792 C.ar    1  UNL1       -0.0003
     26 C         140.2188  141.3167  166.9431 C.ar    1  UNL1        0.0001
     27 C         140.1061  142.6071  166.1867 C.ar    1  UNL1       -0.0003
     28 C         139.1169  142.7359  165.0665 C.ar    1  UNL1       -0.0029
     29 C         141.2080  141.1878  168.0633 C.2     1  UNL1        0.0047
     30 C         140.8133  140.5008  169.3369 C.2     1  UNL1        0.0598
     31 C         141.8025  140.3719  170.4572 C.2     1  UNL1        0.2679
     32 O         141.6404  141.1969  171.6994 O.2     1  UNL1       -0.2681
     33 N         142.9537  139.4180  170.3353 N.am    1  UNL1       -0.1934
     34 O         143.9428  139.2892  171.4557 O.3     1  UNL1       -0.2949
     35 H         143.0601  138.8765  169.5201 H       1  UNL1        0.1825
     36 H         143.6937  139.8876  172.1773 H       1  UNL1        0.2414
@<TRIPOS>BOND
     1    17    18    1
     2    18    11    1
     3    11    12   ar
     4    12    13   ar
     5    13    14   ar
     6    14    15   ar
     7    15    16   ar
     8    16     2    1
     9     2     3    2
    10     3     4    1
    11     4     5    2
    12     5     6    1
    13     6     7    2
    14     7     8    1
    15     8     9    1
    16     9    10    2
    17    10     1    1
    18     1    19    1
    19    19    20    1
    20    20    22    1
    21    22    23    1
    22    23    24   ar
    23    24    25   ar
    24    25    26   ar
    25    26    29    1
    26    29    30    2
    27    30    31    1
    28    31    32    2
    29    31    33   am
    30    33    34    1
    31    26    27   ar
    32    27    28   ar
    33    16    11   ar
    34    10     2    1
    35    28    23   ar
    36     9     4    1
    37    20    21    1
    38    33    35    1
    39    34    36    1
@<TRIPOS>MOLECULE
*****
 36 39 0 0 0
SMALL
GASTEIGER

@<TRIPOS>ATOM
      1 C         143.5079  141.4528  161.1476 C.3     1  UNL1        0.0447
      2 C         141.1431  140.7637  162.1860 C.2     1  UNL1        0.0815
      3 N         140.6987  140.0179  163.4093 N.2     1  UNL1       -0.2459
      4 C         141.9235  139.5982  164.1668 C.2     1  UNL1        0.0773
      5 C         142.1000  138.8360  165.4465 C.2     1  UNL1        0.0185
      6 C         143.4778  138.5602  165.9712 C.2     1  UNL1       -0.0027
      7 C         144.6792  139.0466  165.2162 C.2     1  UNL1       -0.0213
      8 C         144.5027  139.8088  163.9365 C.3     1  UNL1        0.0536
      9 C         143.1249  140.0846  163.4118 C.2     1  UNL1       -0.0026
     10 C         142.6426  140.8050  162.1876 C.2     1  UNL1       -0.0052
     11 C         139.7336  140.5153  160.0178 C.ar    1  UNL1        0.1431
     12 C         138.8361  141.1146  158.9760 C.ar    1  UNL1        0.0576
     13 C         138.4509  142.5618  159.0605 C.ar    1  UNL1        0.1020
     14 N         138.9630  143.4096  160.1870 N.ar    1  UNL1       -0.2421
     15 C         139.8604  142.8103  161.2288 C.ar    1  UNL1        0.1034
     16 C         140.2457  141.3631  161.1442 C.ar    1  UNL1        0.0704
     17 C         141.3592  138.6641  159.1927 C.3     1  UNL1        0.2525
     18 O         140.1189  139.0680  159.9332 O.3     1  UNL1       -0.4713
     19 C         143.7391  142.9345  161.1812 C.3     1  UNL1        0.0736
     20 N         144.5794  143.5380  162.2674 N.3     1  UNL1       -0.2935
     21 H         145.2524  144.1539  161.8112 H       1  UNL1        0.1236
     22 C         143.9323  144.3370  163.3596 C.3     1  UNL1        0.0956
     23 C         143.2551  143.6370  164.5004 C.ar    1  UNL1       -0.0064
     24 C         141.7576  143.5716  164.5574 C.ar    1  UNL1       -0.0029
     25 C         141.0805  142.8715  165.6983 C.ar    1  UNL1       -0.0003
     26 C         141.9007  142.2370  166.7820 C.ar    1  UNL1        0.0001
     27 C         143.3982  142.3025  166.7250 C.ar    1  UNL1       -0.0003
     28 C         144.0754  143.0025  165.5842 C.ar    1  UNL1       -0.0029
     29 C         141.2235  141.5370  167.9228 C.2     1  UNL1        0.0047
     30 C         141.3831  142.0550  169.3214 C.2     1  UNL1        0.0598
     31 C         140.7059  141.3551  170.4623 C.2     1  UNL1        0.2679
     32 O         140.5022  142.0692  171.7655 O.2     1  UNL1       -0.2681
     33 N         140.2325  139.9410  170.3000 N.am    1  UNL1       -0.1934
     34 O         139.5553  139.2412  171.4409 O.3     1  UNL1       -0.2949
     35 H         140.3662  139.4723  169.4446 H       1  UNL1        0.1825
     36 H         139.5043  139.8395  172.2027 H       1  UNL1        0.2414
@<TRIPOS>BOND
     1    17    18    1
     2    18    11    1
     3    11    12   ar
     4    12    13   ar
     5    13    14   ar
     6    14    15   ar
     7    15    16   ar
     8    16     2    1
     9     2     3    2
    10     3     4    1
    11     4     5    2
    12     5     6    1
    13     6     7    2
    14     7     8    1
    15     8     9    1
    16     9    10    2
    17    10     1    1
    18     1    19    1
    19    19    20    1
    20    20    22    1
    21    22    23    1
    22    23    24   ar
    23    24    25   ar
    24    25    26   ar
    25    26    29    1
    26    29    30    2
    27    30    31    1
    28    31    32    2
    29    31    33   am
    30    33    34    1
    31    26    27   ar
    32    27    28   ar
    33    16    11   ar
    34    10     2    1
    35    28    23   ar
    36     9     4    1
    37    20    21    1
    38    33    35    1
    39    34    36    1
@<TRIPOS>MOLECULE
*****
 36 39 0 0 0
SMALL
GASTEIGER

@<TRIPOS>ATOM
      1 C         140.0761  143.5554  159.6309 C.3     1  UNL1        0.0447
      2 C         141.4554  141.4751  160.5873 C.2     1  UNL1        0.0815
      3 N         141.2637  140.5028  161.7134 N.2     1  UNL1       -0.2459
      4 C         139.9811  140.8479  162.4104 C.2     1  UNL1        0.0773
      5 C         139.2828  140.2358  163.5884 C.2     1  UNL1        0.0185
      6 C         137.9835  140.8093  164.0711 C.2     1  UNL1       -0.0027
      7 C         137.3826  141.9948  163.3759 C.2     1  UNL1       -0.0213
      8 C         138.0809  142.6069  162.1979 C.3     1  UNL1        0.0536
      9 C         139.3801  142.0335  161.7152 C.2     1  UNL1       -0.0026
     10 C         140.2913  142.4210  160.5885 C.2     1  UNL1       -0.0052
     11 C         143.6801  142.5379  159.7681 C.ar    1  UNL1        0.1431
     12 C         144.8334  142.5602  158.8092 C.ar    1  UNL1        0.0576
     13 C         144.9153  141.5420  157.7108 C.ar    1  UNL1        0.1020
     14 N         143.8440  140.5015  157.5712 N.ar    1  UNL1       -0.2421
     15 C         142.6907  140.4792  158.5300 C.ar    1  UNL1        0.1034
     16 C         142.6087  141.4974  159.6285 C.ar    1  UNL1        0.0704
     17 C         144.5281  143.4697  162.0402 C.3     1  UNL1        0.2525
     18 O         143.5981  143.5561  160.8665 O.3     1  UNL1       -0.4713
     19 C         140.3955  144.9603  160.0487 C.3     1  UNL1        0.0736
     20 N         141.1937  145.2094  161.2940 N.3     1  UNL1       -0.2935
     21 H         141.8899  145.9175  161.0608 H       1  UNL1        0.1236
     22 C         140.5072  145.6724  162.5447 C.3     1  UNL1        0.0956
     23 C         140.4673  144.7825  163.7516 C.ar    1  UNL1       -0.0064
     24 C         141.5868  143.8182  164.0098 C.ar    1  UNL1       -0.0029
     25 C         141.5468  142.9284  165.2167 C.ar    1  UNL1       -0.0003
     26 C         140.3873  143.0028  166.1654 C.ar    1  UNL1        0.0001
     27 C         139.2677  143.9671  165.9072 C.ar    1  UNL1       -0.0003
     28 C         139.3077  144.8570  164.7003 C.ar    1  UNL1       -0.0029
     29 C         140.3473  142.1130  167.3723 C.2     1  UNL1        0.0047
     30 C         140.3546  142.7130  168.7470 C.2     1  UNL1        0.0598
     31 C         140.3147  141.8232  169.9539 C.2     1  UNL1        0.2679
     32 O         140.3637  142.4214  171.3286 O.2     1  UNL1       -0.2681
     33 N         140.2257  140.3353  169.7863 N.am    1  UNL1       -0.1934
     34 O         140.1857  139.4455  170.9932 O.3     1  UNL1       -0.2949
     35 H         140.1935  139.9426  168.8840 H       1  UNL1        0.1825
     36 H         140.2257  139.9881  171.7963 H       1  UNL1        0.2414
@<TRIPOS>BOND
     1    17    18    1
     2    18    11    1
     3    11    12   ar
     4    12    13   ar
     5    13    14   ar
     6    14    15   ar
     7    15    16   ar
     8    16     2    1
     9     2     3    2
    10     3     4    1
    11     4     5    2
    12     5     6    1
    13     6     7    2
    14     7     8    1
    15     8     9    1
    16     9    10    2
    17    10     1    1
    18     1    19    1
    19    19    20    1
    20    20    22    1
    21    22    23    1
    22    23    24   ar
    23    24    25   ar
    24    25    26   ar
    25    26    29    1
    26    29    30    2
    27    30    31    1
    28    31    32    2
    29    31    33   am
    30    33    34    1
    31    26    27   ar
    32    27    28   ar
    33    16    11   ar
    34    10     2    1
    35    28    23   ar
    36     9     4    1
    37    20    21    1
    38    33    35    1
    39    34    36    1
@<TRIPOS>MOLECULE
*****
 36 39 0 0 0
SMALL
GASTEIGER

@<TRIPOS>ATOM
      1 C         141.5231  139.0373  161.3669 C.3     1  UNL1        0.0447
      2 C         141.3271  141.5619  162.2231 C.2     1  UNL1        0.0815
      3 N         141.6367  142.2736  163.5067 N.2     1  UNL1       -0.2459
      4 C         142.1748  141.2650  164.4779 C.2     1  UNL1        0.0773
      5 C         142.6469  141.3898  165.8961 C.2     1  UNL1        0.0185
      6 C         143.1419  140.1795  166.6310 C.2     1  UNL1       -0.0027
      7 C         143.1648  138.8444  165.9477 C.2     1  UNL1       -0.0213
      8 C         142.6928  138.7196  164.5294 C.3     1  UNL1        0.0536
      9 C         142.1978  139.9299  163.7945 C.2     1  UNL1       -0.0026
     10 C         141.6738  140.1134  162.4010 C.2     1  UNL1       -0.0052
     11 C         141.6510  142.4003  159.7855 C.ar    1  UNL1        0.1431
     12 C         141.0926  143.0270  158.5423 C.ar    1  UNL1        0.0576
     13 C         139.6521  143.4421  158.4936 C.ar    1  UNL1        0.1020
     14 N         138.7698  143.2305  159.6881 N.ar    1  UNL1       -0.2421
     15 C         139.3282  142.6037  160.9313 C.ar    1  UNL1        0.1034
     16 C         140.7688  142.1887  160.9799 C.ar    1  UNL1        0.0704
     17 C         144.1053  142.6935  158.9852 C.3     1  UNL1        0.2525
     18 O         143.0916  141.9852  159.8341 O.3     1  UNL1       -0.4713
     19 C         140.6994  137.8199  161.6660 C.3     1  UNL1        0.0736
     20 N         139.2720  137.7496  161.2103 N.3     1  UNL1       -0.2935
     21 H         139.0930  136.7795  160.9510 H       1  UNL1        0.1236
     22 C         138.1675  138.1606  162.1382 C.3     1  UNL1        0.0956
     23 C         138.4938  138.7876  163.4612 C.ar    1  UNL1       -0.0064
     24 C         139.0651  137.9506  164.5672 C.ar    1  UNL1       -0.0029
     25 C         139.3915  138.5776  165.8902 C.ar    1  UNL1       -0.0003
     26 C         139.1465  140.0415  166.1074 C.ar    1  UNL1        0.0001
     27 C         138.5752  140.8784  165.0014 C.ar    1  UNL1       -0.0003
     28 C         138.2489  140.2515  163.6783 C.ar    1  UNL1       -0.0029
     29 C         139.4729  140.6684  167.4304 C.2     1  UNL1        0.0047
     30 C         139.2157  139.9143  168.7013 C.2     1  UNL1        0.0598
     31 C         139.5421  140.5412  170.0245 C.2     1  UNL1        0.2679
     32 O         139.2438  141.9921  170.2609 O.2     1  UNL1       -0.2681
     33 N         140.1666  139.7172  171.1112 N.am    1  UNL1       -0.1934
     34 O         140.4929  140.3441  172.4342 O.3     1  UNL1       -0.2949
     35 H         140.3624  138.7649  170.9560 H       1  UNL1        0.1825
     36 H         140.2384  141.2800  172.4201 H       1  UNL1        0.2414
@<TRIPOS>BOND
     1    17    18    1
     2    18    11    1
     3    11    12   ar
     4    12    13   ar
     5    13    14   ar
     6    14    15   ar
     7    15    16   ar
     8    16     2    1
     9     2     3    2
    10     3     4    1
    11     4     5    2
    12     5     6    1
    13     6     7    2
    14     7     8    1
    15     8     9    1
    16     9    10    2
    17    10     1    1
    18     1    19    1
    19    19    20    1
    20    20    22    1
    21    22    23    1
    22    23    24   ar
    23    24    25   ar
    24    25    26   ar
    25    26    29    1
    26    29    30    2
    27    30    31    1
    28    31    32    2
    29    31    33   am
    30    33    34    1
    31    26    27   ar
    32    27    28   ar
    33    16    11   ar
    34    10     2    1
    35    28    23   ar
    36     9     4    1
    37    20    21    1
    38    33    35    1
    39    34    36    1
@<TRIPOS>MOLECULE
*****
 36 39 0 0 0
SMALL
GASTEIGER

@<TRIPOS>ATOM
      1 C         144.1149  141.0534  161.3988 C.3     1  UNL1        0.0447
      2 C         141.4767  140.6813  161.6140 C.2     1  UNL1        0.0815
      3 N         140.5702  140.0898  162.6525 N.2     1  UNL1       -0.2459
      4 C         141.4192  139.6254  163.7986 C.2     1  UNL1        0.0773
      5 C         141.0739  138.9646  165.1002 C.2     1  UNL1        0.0185
      6 C         142.1598  138.6083  166.0716 C.2     1  UNL1       -0.0027
      7 C         143.5910  138.9127  165.7415 C.2     1  UNL1       -0.0213
      8 C         143.9363  139.5735  164.4399 C.3     1  UNL1        0.0536
      9 C         142.8504  139.9298  163.4685 C.2     1  UNL1       -0.0026
     10 C         142.8859  140.5824  162.1183 C.2     1  UNL1       -0.0052
     11 C         140.8103  142.7446  160.1827 C.ar    1  UNL1        0.1431
     12 C         140.3827  143.3319  158.8704 C.ar    1  UNL1        0.0576
     13 C         140.1937  142.4430  157.6770 C.ar    1  UNL1        0.1020
     14 N         140.4324  140.9670  157.7960 N.ar    1  UNL1       -0.2421
     15 C         140.8600  140.3797  159.1083 C.ar    1  UNL1        0.1034
     16 C         141.0490  141.2685  160.3017 C.ar    1  UNL1        0.0704
     17 C         140.8279  145.1175  161.2407 C.3     1  UNL1        0.2525
     18 O         140.9993  143.6335  161.3762 O.3     1  UNL1       -0.4713
     19 C         144.4587  142.5134  161.3783 C.3     1  UNL1        0.0736
     20 N         144.8870  143.2009  162.6408 N.3     1  UNL1       -0.2935
     21 H         145.6590  143.8194  162.3920 H       1  UNL1        0.1236
     22 C         143.9033  144.0265  163.4159 C.3     1  UNL1        0.0956
     23 C         143.1772  143.4274  164.5837 C.ar    1  UNL1       -0.0064
     24 C         141.6844  143.2855  164.5461 C.ar    1  UNL1       -0.0029
     25 C         140.9583  142.6864  165.7139 C.ar    1  UNL1       -0.0003
     26 C         141.7249  142.2291  166.9194 C.ar    1  UNL1        0.0001
     27 C         143.2177  142.3710  166.9570 C.ar    1  UNL1       -0.0003
     28 C         143.9439  142.9701  165.7892 C.ar    1  UNL1       -0.0029
     29 C         140.9988  141.6300  168.0872 C.2     1  UNL1        0.0047
     30 C         141.6053  141.6891  169.4578 C.2     1  UNL1        0.0598
     31 C         140.8792  141.0900  170.6257 C.2     1  UNL1        0.2679
     32 O         140.6506  141.9043  171.8645 O.2     1  UNL1       -0.2681
     33 N         140.3817  139.6767  170.5549 N.am    1  UNL1       -0.1934
     34 O         139.6557  139.0777  171.7228 O.3     1  UNL1       -0.2949
     35 H         140.5318  139.1422  169.7418 H       1  UNL1        0.1825
     36 H         139.5938  139.7327  172.4356 H       1  UNL1        0.2414
@<TRIPOS>BOND
     1    17    18    1
     2    18    11    1
     3    11    12   ar
     4    12    13   ar
     5    13    14   ar
     6    14    15   ar
     7    15    16   ar
     8    16     2    1
     9     2     3    2
    10     3     4    1
    11     4     5    2
    12     5     6    1
    13     6     7    2
    14     7     8    1
    15     8     9    1
    16     9    10    2
    17    10     1    1
    18     1    19    1
    19    19    20    1
    20    20    22    1
    21    22    23    1
    22    23    24   ar
    23    24    25   ar
    24    25    26   ar
    25    26    29    1
    26    29    30    2
    27    30    31    1
    28    31    32    2
    29    31    33   am
    30    33    34    1
    31    26    27   ar
    32    27    28   ar
    33    16    11   ar
    34    10     2    1
    35    28    23   ar
    36     9     4    1
    37    20    21    1
    38    33    35    1
    39    34    36    1
@<TRIPOS>MOLECULE
*****
 36 39 0 0 0
SMALL
GASTEIGER

@<TRIPOS>ATOM
      1 C         141.1732  140.0202  160.9856 C.3     1  UNL1        0.0447
      2 C         139.7125  141.8411  162.2877 C.2     1  UNL1        0.0815
      3 N         138.9143  141.8496  163.5577 N.2     1  UNL1       -0.2459
      4 C         139.0110  140.4860  164.1752 C.2     1  UNL1        0.0773
      5 C         138.4287  139.9095  165.4315 C.2     1  UNL1        0.0185
      6 C         138.7044  138.4817  165.7995 C.2     1  UNL1       -0.0027
      7 C         139.5624  137.6305  164.9111 C.2     1  UNL1       -0.0213
      8 C         140.1447  138.2070  163.6548 C.3     1  UNL1        0.0536
      9 C         139.8690  139.6347  163.2868 C.2     1  UNL1       -0.0026
     10 C         140.3025  140.4723  162.1203 C.2     1  UNL1       -0.0052
     11 C         140.5481  144.2580  161.8289 C.ar    1  UNL1        0.1431
     12 C         140.7251  145.4152  160.8911 C.ar    1  UNL1        0.0576
     13 C         140.2436  145.3127  159.4742 C.ar    1  UNL1        0.1020
     14 N         139.5850  144.0530  158.9952 N.ar    1  UNL1       -0.2421
     15 C         139.4080  142.8959  159.9330 C.ar    1  UNL1        0.1034
     16 C         139.8895  142.9983  161.3499 C.ar    1  UNL1        0.0704
     17 C         142.1882  145.2521  163.5816 C.3     1  UNL1        0.2525
     18 O         141.0296  144.3605  163.2459 O.3     1  UNL1       -0.4713
     19 C         142.6175  140.4232  160.9419 C.3     1  UNL1        0.0736
     20 N         143.6687  139.5076  161.4958 N.3     1  UNL1       -0.2935
     21 H         144.3745  139.3952  160.7680 H       1  UNL1        0.1236
     22 C         144.3983  139.8773  162.7531 C.3     1  UNL1        0.0956
     23 C         143.6284  140.2076  163.9974 C.ar    1  UNL1       -0.0064
     24 C         143.3625  139.1426  165.0197 C.ar    1  UNL1       -0.0029
     25 C         142.5926  139.4729  166.2640 C.ar    1  UNL1       -0.0003
     26 C         142.0886  140.8682  166.4860 C.ar    1  UNL1        0.0001
     27 C         142.3545  141.9332  165.4637 C.ar    1  UNL1       -0.0003
     28 C         143.1244  141.6029  164.2194 C.ar    1  UNL1       -0.0029
     29 C         141.3187  141.1984  167.7302 C.2     1  UNL1        0.0047
     30 C         141.7045  142.3890  168.5570 C.2     1  UNL1        0.0598
     31 C         140.9347  142.7193  169.8013 C.2     1  UNL1        0.2679
     32 O         139.9757  143.8727  169.8059 O.2     1  UNL1       -0.2681
     33 N         141.1238  141.8963  171.0410 N.am    1  UNL1       -0.1934
     34 O         140.3539  142.2267  172.2853 O.3     1  UNL1       -0.2949
     35 H         141.7532  141.1392  171.0380 H       1  UNL1        0.1825
     36 H         139.7838  142.9936  172.1187 H       1  UNL1        0.2414
@<TRIPOS>BOND
     1    17    18    1
     2    18    11    1
     3    11    12   ar
     4    12    13   ar
     5    13    14   ar
     6    14    15   ar
     7    15    16   ar
     8    16     2    1
     9     2     3    2
    10     3     4    1
    11     4     5    2
    12     5     6    1
    13     6     7    2
    14     7     8    1
    15     8     9    1
    16     9    10    2
    17    10     1    1
    18     1    19    1
    19    19    20    1
    20    20    22    1
    21    22    23    1
    22    23    24   ar
    23    24    25   ar
    24    25    26   ar
    25    26    29    1
    26    29    30    2
    27    30    31    1
    28    31    32    2
    29    31    33   am
    30    33    34    1
    31    26    27   ar
    32    27    28   ar
    33    16    11   ar
    34    10     2    1
    35    28    23   ar
    36     9     4    1
    37    20    21    1
    38    33    35    1
    39    34    36    1
@<TRIPOS>MOLECULE
*****
 36 39 0 0 0
SMALL
GASTEIGER

@<TRIPOS>ATOM
      1 C         142.6625  142.6458  160.7919 C.3     1  UNL1        0.0447
      2 C         141.3815  140.4573  161.6372 C.2     1  UNL1        0.0815
      3 N         140.5158  140.1238  162.8159 N.2     1  UNL1       -0.2459
      4 C         140.3919  141.3554  163.6632 C.2     1  UNL1        0.0773
      5 C         139.6626  141.6214  164.9466 C.2     1  UNL1        0.0185
      6 C         139.7223  142.9821  165.5750 C.2     1  UNL1       -0.0027
      7 C         140.5114  144.0768  164.9199 C.2     1  UNL1       -0.0213
      8 C         141.2407  143.8107  163.6365 C.3     1  UNL1        0.0536
      9 C         141.1810  142.4500  163.0082 C.2     1  UNL1       -0.0026
     10 C         141.7926  141.8950  161.7560 C.2     1  UNL1       -0.0052
     11 C         140.8917  139.3810  159.3238 C.ar    1  UNL1        0.1431
     12 C         141.2784  138.4417  158.2200 C.ar    1  UNL1        0.0576
     13 C         142.5414  137.6396  158.3258 C.ar    1  UNL1        0.1020
     14 N         143.4178  137.7767  159.5354 N.ar    1  UNL1       -0.2421
     15 C         143.0312  138.7159  160.6392 C.ar    1  UNL1        0.1034
     16 C         141.7681  139.5181  160.5334 C.ar    1  UNL1        0.0704
     17 C         139.6064  141.4433  158.4047 C.3     1  UNL1        0.2525
     18 O         139.6286  140.1832  159.2180 O.3     1  UNL1       -0.4713
     19 C         144.1505  142.6634  160.9814 C.3     1  UNL1        0.0736
     20 N         144.7355  143.1286  162.2819 N.3     1  UNL1       -0.2935
     21 H         144.0072  143.6598  162.7592 H       1  UNL1        0.1236
     22 C         145.2593  142.1282  163.2691 C.3     1  UNL1        0.0956
     23 C         144.4197  141.7243  164.4447 C.ar    1  UNL1       -0.0064
     24 C         144.0775  142.7306  165.5031 C.ar    1  UNL1       -0.0029
     25 C         143.2379  142.3266  166.6786 C.ar    1  UNL1       -0.0003
     26 C         142.7404  140.9164  166.7958 C.ar    1  UNL1        0.0001
     27 C         143.0825  139.9101  165.7374 C.ar    1  UNL1       -0.0003
     28 C         143.9221  140.3140  164.5618 C.ar    1  UNL1       -0.0029
     29 C         141.9008  140.5125  167.9713 C.2     1  UNL1        0.0047
     30 C         142.1838  141.0870  169.3277 C.2     1  UNL1        0.0598
     31 C         141.3442  140.6831  170.5034 C.2     1  UNL1        0.2679
     32 O         141.3723  141.5002  171.7610 O.2     1  UNL1       -0.2681
     33 N         140.4766  139.4623  170.4214 N.am    1  UNL1       -0.1934
     34 O         139.6370  139.0585  171.5971 O.3     1  UNL1       -0.2949
     35 H         140.4581  138.9260  169.5960 H       1  UNL1        0.1825
     36 H         139.7714  139.6889  172.3220 H       1  UNL1        0.2414
@<TRIPOS>BOND
     1    17    18    1
     2    18    11    1
     3    11    12   ar
     4    12    13   ar
     5    13    14   ar
     6    14    15   ar
     7    15    16   ar
     8    16     2    1
     9     2     3    2
    10     3     4    1
    11     4     5    2
    12     5     6    1
    13     6     7    2
    14     7     8    1
    15     8     9    1
    16     9    10    2
    17    10     1    1
    18     1    19    1
    19    19    20    1
    20    20    22    1
    21    22    23    1
    22    23    24   ar
    23    24    25   ar
    24    25    26   ar
    25    26    29    1
    26    29    30    2
    27    30    31    1
    28    31    32    2
    29    31    33   am
    30    33    34    1
    31    26    27   ar
    32    27    28   ar
    33    16    11   ar
    34    10     2    1
    35    28    23   ar
    36     9     4    1
    37    20    21    1
    38    33    35    1
    39    34    36    1
