@<TRIPOS>MOLECULE
*****
 38 43 0 0 0
SMALL
GASTEIGER

@<TRIPOS>ATOM
      1 C         140.0471  139.3190  162.2754 C.ar    1  UNL1       -0.0077
      2 C         141.2076  138.7383  161.5232 C.ar    1  UNL1        0.0159
      3 C         141.1260  138.5649  160.0355 C.ar    1  UNL1        0.0854
      4 N         142.2865  137.9842  159.2833 N.ar    1  UNL1       -0.2136
      5 C         142.2048  137.8108  157.7956 C.ar    1  UNL1        0.2208
      6 N         140.9626  138.2182  157.0601 N.ar    1  UNL1       -0.2120
      7 C         139.8021  138.7989  157.8123 C.ar    1  UNL1        0.1033
      8 C         139.8837  138.9723  159.3000 C.ar    1  UNL1        0.0378
      9 C         138.7231  139.5530  160.0523 C.ar    1  UNL1        0.0141
     10 C         138.8048  139.7264  161.5400 C.ar    1  UNL1        0.0539
     11 CL        137.6442  140.3072  162.2922 Cl      1  UNL1       -0.0826
     12 N         140.2920  139.8393  166.7385 N.3     1  UNL1       -0.2674
     13 C         141.0021  140.7999  165.8314 C.3     1  UNL1        0.0727
     14 C         140.9205  140.6265  164.3437 C.3     1  UNL1        0.0245
     15 C         140.1287  139.4925  163.7632 C.3     1  UNL1        0.0586
     16 C         139.4186  138.5318  164.6703 C.3     1  UNL1        0.1808
     17 F         138.6268  137.3978  164.0898 F       1  UNL1       -0.2354
     18 C         139.5003  138.7053  166.1580 C.3     1  UNL1        0.1082
     19 O         142.9813  139.5300  168.5611 O.3     1  UNL1       -0.3804
     20 C         141.6098  139.8705  169.0640 C.3     1  UNL1        0.1569
     21 C         141.2336  140.1287  170.4929 C.3     1  UNL1        0.1727
     22 O         139.7649  140.4305  170.5383 O.3     1  UNL1       -0.3496
     23 C         139.2335  140.3588  169.1375 C.3     1  UNL1        0.1606
     24 C         140.3737  140.0127  168.2263 C.3     1  UNL1        0.1170
     25 H         143.6010  139.5003  169.3068 H       1  UNL1        0.2105
     26 N         143.3654  137.2301  157.0433 N.pl3   1  UNL1       -0.2794
     27 H         144.1973  137.7474  156.9458 H       1  UNL1        0.1552
     28 C         143.2584  135.8611  156.4397 C.ar    1  UNL1        0.1001
     29 C         143.0281  135.5522  154.9900 C.ar    1  UNL1        0.1372
     30 N         142.9903  134.0608  154.8341 N.ar    1  UNL1       -0.1654
     31 N         143.1973  133.4479  156.1874 N.ar    1  UNL1       -0.2353
     32 C         143.3630  134.5605  157.1797 C.ar    1  UNL1        0.1499
     33 CL        143.5929  134.4006  158.6533 Cl      1  UNL1       -0.0603
     34 C         143.2324  131.9801  156.4946 C.3     1  UNL1        0.1725
     35 C         142.7167  130.5912  156.2602 C.3     1  UNL1        0.0986
     36 C         143.8089  130.8267  157.2609 C.3     1  UNL1        0.2863
     37 F         144.0332  129.4221  157.7371 F       1  UNL1       -0.2022
     38 F         144.8234  131.5501  158.0962 F       1  UNL1       -0.2022
@<TRIPOS>BOND
     1    20    19    1
     2    20    21    1
     3    21    22    1
     4    22    23    1
     5    23    24    1
     6    24    12    1
     7    12    13    1
     8    13    14    1
     9    14    15    1
    10    15     1    1
    11     1     2   ar
    12     2     3   ar
    13     3     4   ar
    14     4     5   ar
    15     5    26    1
    16    26    28    1
    17    28    29   ar
    18    29    30   ar
    19    30    31   ar
    20    34    31    1
    21    34    35    1
    22    35    36    1
    23    36    37    1
    24    36    38    1
    25    31    32   ar
    26    32    33    1
    27     5     6   ar
    28     6     7   ar
    29     7     8   ar
    30     8     9   ar
    31     9    10   ar
    32    10    11    1
    33    15    16    1
    34    16    17    1
    35    16    18    1
    36    24    20    1
    37    18    12    1
    38    10     1   ar
    39     8     3   ar
    40    32    28   ar
    41    36    34    1
    42    19    25    1
    43    26    27    1
@<TRIPOS>MOLECULE
*****
 38 43 0 0 0
SMALL
GASTEIGER

@<TRIPOS>ATOM
      1 C         142.4323  142.8694  163.2924 C.ar    1  UNL1       -0.0077
      2 C         143.1245  141.8662  162.4183 C.ar    1  UNL1        0.0159
      3 C         143.2595  142.1206  160.9461 C.ar    1  UNL1        0.0854
      4 N         143.9517  141.1174  160.0719 N.ar    1  UNL1       -0.2136
      5 C         144.0866  141.3719  158.5999 C.ar    1  UNL1        0.2208
      6 N         143.5293  142.6296  158.0020 N.ar    1  UNL1       -0.2120
      7 C         142.8371  143.6329  158.8762 C.ar    1  UNL1        0.1033
      8 C         142.7022  143.3784  160.3483 C.ar    1  UNL1        0.0378
      9 C         142.0099  144.3817  161.2225 C.ar    1  UNL1        0.0141
     10 C         141.8750  144.1272  162.6946 C.ar    1  UNL1        0.0539
     11 CL        141.1827  145.1305  163.5688 Cl      1  UNL1       -0.0826
     12 N         142.0273  142.1060  167.7087 N.3     1  UNL1       -0.2674
     13 C         140.8355  141.9593  166.8098 C.3     1  UNL1        0.0727
     14 C         140.9705  142.2138  165.3378 C.3     1  UNL1        0.0245
     15 C         142.2973  142.6150  164.7646 C.3     1  UNL1        0.0586
     16 C         143.4892  142.7617  165.6634 C.3     1  UNL1        0.1808
     17 F         144.8160  143.1628  165.0902 F       1  UNL1       -0.2354
     18 C         143.3542  142.5072  167.1355 C.3     1  UNL1        0.1082
     19 O         142.9746  139.4096  169.2841 O.3     1  UNL1       -0.3804
     20 C         142.3277  140.6122  169.9049 C.3     1  UNL1        0.1569
     21 C         142.0028  140.7865  171.3589 C.3     1  UNL1        0.1727
     22 O         141.3665  142.1336  171.5334 O.3     1  UNL1       -0.3496
     23 C         141.2983  142.7919  170.1873 C.3     1  UNL1        0.1606
     24 C         141.8924  141.8515  169.1808 C.3     1  UNL1        0.1170
     25 H         143.1556  138.7491  169.9710 H       1  UNL1        0.2105
     26 N         144.7789  140.3686  157.7256 N.pl3   1  UNL1       -0.2794
     27 H         144.9142  139.4473  158.0454 H       1  UNL1        0.1552
     28 C         145.2649  140.7689  156.3642 C.ar    1  UNL1        0.1001
     29 C         144.7709  140.2251  155.0565 C.ar    1  UNL1        0.1372
     30 N         145.5309  140.9035  153.9555 N.ar    1  UNL1       -0.1654
     31 N         146.4946  141.8666  154.5828 N.ar    1  UNL1       -0.2353
     32 C         146.3302  141.7835  156.0714 C.ar    1  UNL1        0.1499
     33 CL        147.0966  142.5758  157.0887 Cl      1  UNL1       -0.0603
     34 C         147.4543  142.7567  153.8501 C.3     1  UNL1        0.1725
     35 C         147.7152  143.8243  152.8293 C.3     1  UNL1        0.0986
     36 C         148.8556  143.2307  153.6019 C.3     1  UNL1        0.2863
     37 F         149.9987  144.0042  153.0145 F       1  UNL1       -0.2022
     38 F         149.5991  142.3684  154.5785 F       1  UNL1       -0.2022
@<TRIPOS>BOND
     1    20    19    1
     2    20    21    1
     3    21    22    1
     4    22    23    1
     5    23    24    1
     6    24    12    1
     7    12    13    1
     8    13    14    1
     9    14    15    1
    10    15     1    1
    11     1     2   ar
    12     2     3   ar
    13     3     4   ar
    14     4     5   ar
    15     5    26    1
    16    26    28    1
    17    28    29   ar
    18    29    30   ar
    19    30    31   ar
    20    34    31    1
    21    34    35    1
    22    35    36    1
    23    36    37    1
    24    36    38    1
    25    31    32   ar
    26    32    33    1
    27     5     6   ar
    28     6     7   ar
    29     7     8   ar
    30     8     9   ar
    31     9    10   ar
    32    10    11    1
    33    15    16    1
    34    16    17    1
    35    16    18    1
    36    24    20    1
    37    18    12    1
    38    10     1   ar
    39     8     3   ar
    40    32    28   ar
    41    36    34    1
    42    19    25    1
    43    26    27    1
@<TRIPOS>MOLECULE
*****
 38 43 0 0 0
SMALL
GASTEIGER

@<TRIPOS>ATOM
      1 C         142.3308  139.6671  163.4643 C.ar    1  UNL1       -0.0077
      2 C         142.8872  140.7383  162.5739 C.ar    1  UNL1        0.0159
      3 C         143.1628  140.4445  161.1290 C.ar    1  UNL1        0.0854
      4 N         143.7192  141.5157  160.2386 N.ar    1  UNL1       -0.2136
      5 C         143.9947  141.2218  158.7938 C.ar    1  UNL1        0.2208
      6 N         143.7137  139.8567  158.2393 N.ar    1  UNL1       -0.2120
      7 C         143.1573  138.7855  159.1296 C.ar    1  UNL1        0.1033
      8 C         142.8818  139.0794  160.5745 C.ar    1  UNL1        0.0378
      9 C         142.3253  138.0081  161.4649 C.ar    1  UNL1        0.0141
     10 C         142.0498  138.3020  162.9098 C.ar    1  UNL1        0.0539
     11 CL        141.4933  137.2307  163.8002 Cl      1  UNL1       -0.0826
     12 N         141.5042  140.5487  167.7990 N.3     1  UNL1       -0.2674
     13 C         140.5817  141.0717  166.7381 C.3     1  UNL1        0.0727
     14 C         140.8573  140.7779  165.2933 C.3     1  UNL1        0.0245
     15 C         142.0553  139.9610  164.9092 C.3     1  UNL1        0.0586
     16 C         142.9777  139.4379  165.9701 C.3     1  UNL1        0.1808
     17 F         144.1757  138.6210  165.5861 F       1  UNL1       -0.2354
     18 C         142.7022  139.7318  167.4150 C.3     1  UNL1        0.1082
     19 O         142.8204  142.9682  169.5493 O.3     1  UNL1       -0.3804
     20 C         141.8336  141.9546  170.0484 C.3     1  UNL1        0.1569
     21 C         141.2787  141.8753  171.4397 C.3     1  UNL1        0.1727
     22 O         140.3307  140.7141  171.4951 O.3     1  UNL1       -0.3496
     23 C         140.2998  140.0759  170.1380 C.3     1  UNL1        0.1606
     24 C         141.2287  140.8426  169.2439 C.3     1  UNL1        0.1170
     25 H         143.0519  143.5758  170.2691 H       1  UNL1        0.2105
     26 N         144.5512  142.2931  157.9033 N.pl3   1  UNL1       -0.2794
     27 H         144.2943  143.2330  158.0443 H       1  UNL1        0.1552
     28 C         145.4990  141.9323  156.7982 C.ar    1  UNL1        0.1001
     29 C         145.1719  141.1034  155.5915 C.ar    1  UNL1        0.1372
     30 N         146.4111  140.9958  154.7532 N.ar    1  UNL1       -0.1654
     31 N         147.5041  141.7582  155.4417 N.ar    1  UNL1       -0.2353
     32 C         146.9404  142.3369  156.7055 C.ar    1  UNL1        0.1499
     33 CL        147.6871  143.1735  157.7018 Cl      1  UNL1       -0.0603
     34 C         148.9134  141.9144  154.9523 C.3     1  UNL1        0.1725
     35 C         150.3847  141.6861  155.1347 C.3     1  UNL1        0.0986
     36 C         149.8831  142.4131  153.9223 C.3     1  UNL1        0.2863
     37 F         151.1839  142.6932  153.2299 F       1  UNL1       -0.2022
     38 F         148.9297  143.0429  152.9504 F       1  UNL1       -0.2022
@<TRIPOS>BOND
     1    20    19    1
     2    20    21    1
     3    21    22    1
     4    22    23    1
     5    23    24    1
     6    24    12    1
     7    12    13    1
     8    13    14    1
     9    14    15    1
    10    15     1    1
    11     1     2   ar
    12     2     3   ar
    13     3     4   ar
    14     4     5   ar
    15     5    26    1
    16    26    28    1
    17    28    29   ar
    18    29    30   ar
    19    30    31   ar
    20    34    31    1
    21    34    35    1
    22    35    36    1
    23    36    37    1
    24    36    38    1
    25    31    32   ar
    26    32    33    1
    27     5     6   ar
    28     6     7   ar
    29     7     8   ar
    30     8     9   ar
    31     9    10   ar
    32    10    11    1
    33    15    16    1
    34    16    17    1
    35    16    18    1
    36    24    20    1
    37    18    12    1
    38    10     1   ar
    39     8     3   ar
    40    32    28   ar
    41    36    34    1
    42    19    25    1
    43    26    27    1
@<TRIPOS>MOLECULE
*****
 38 43 0 0 0
SMALL
GASTEIGER

@<TRIPOS>ATOM
      1 C         140.2916  139.2660  158.1056 C.ar    1  UNL1       -0.0077
      2 C         139.6457  139.1712  159.4560 C.ar    1  UNL1        0.0159
      3 C         139.1537  140.4117  160.1409 C.ar    1  UNL1        0.0854
      4 N         138.5078  140.3169  161.4914 N.ar    1  UNL1       -0.2136
      5 C         138.0158  141.5574  162.1762 C.ar    1  UNL1        0.2208
      6 N         138.1698  142.8928  161.5106 N.ar    1  UNL1       -0.2120
      7 C         138.8157  142.9876  160.1601 C.ar    1  UNL1        0.1033
      8 C         139.3076  141.7471  159.4753 C.ar    1  UNL1        0.0378
      9 C         139.9536  141.8419  158.1248 C.ar    1  UNL1        0.0141
     10 C         140.4455  140.6014  157.4399 C.ar    1  UNL1        0.0539
     11 CL        141.0915  140.6962  156.0894 Cl      1  UNL1       -0.0826
     12 N         141.7674  135.5444  156.0509 N.3     1  UNL1       -0.2674
     13 C         140.4276  136.1169  155.6942 C.3     1  UNL1        0.0727
     14 C         139.9357  137.3574  156.3791 C.3     1  UNL1        0.0245
     15 C         140.7836  138.0254  157.4207 C.3     1  UNL1        0.0586
     16 C         142.1233  137.4530  157.7773 C.3     1  UNL1        0.1808
     17 F         142.9712  138.1210  158.8189 F       1  UNL1       -0.2354
     18 C         142.6152  136.2125  157.0925 C.3     1  UNL1        0.1082
     19 O         142.8254  132.8313  157.5238 O.3     1  UNL1       -0.3804
     20 C         142.7457  133.0568  156.0430 C.3     1  UNL1        0.1569
     21 C         143.1383  132.0749  154.9793 C.3     1  UNL1        0.1727
     22 O         142.8946  132.7150  153.6447 O.3     1  UNL1       -0.3496
     23 C         142.3514  134.0926  153.8838 C.3     1  UNL1        0.1606
     24 C         142.2594  134.3039  155.3660 C.3     1  UNL1        0.1170
     25 H         143.1738  131.9428  157.6973 H       1  UNL1        0.2105
     26 N         137.3699  141.4626  163.5267 N.pl3   1  UNL1       -0.2794
     27 H         136.4131  141.6703  163.6305 H       1  UNL1        0.1552
     28 C         138.1817  141.0514  164.7191 C.ar    1  UNL1        0.1001
     29 C         138.1918  139.6917  165.3525 C.ar    1  UNL1        0.1372
     30 N         139.1423  139.7276  166.5123 N.ar    1  UNL1       -0.1654
     31 N         139.7196  141.1095  166.5959 N.ar    1  UNL1       -0.2353
     32 C         139.1259  141.9276  165.4876 C.ar    1  UNL1        0.1499
     33 CL        139.4241  143.3690  165.1986 Cl      1  UNL1       -0.0603
     34 C         140.7157  141.5891  167.6096 C.3     1  UNL1        0.1725
     35 C         141.9790  141.3779  168.3904 C.3     1  UNL1        0.0986
     36 C         141.1778  142.6310  168.5848 C.3     1  UNL1        0.2863
     37 F         142.0197  143.3209  169.6169 F       1  UNL1       -0.2022
     38 F         140.0842  143.6446  168.4207 F       1  UNL1       -0.2022
@<TRIPOS>BOND
     1    20    19    1
     2    20    21    1
     3    21    22    1
     4    22    23    1
     5    23    24    1
     6    24    12    1
     7    12    13    1
     8    13    14    1
     9    14    15    1
    10    15     1    1
    11     1     2   ar
    12     2     3   ar
    13     3     4   ar
    14     4     5   ar
    15     5    26    1
    16    26    28    1
    17    28    29   ar
    18    29    30   ar
    19    30    31   ar
    20    34    31    1
    21    34    35    1
    22    35    36    1
    23    36    37    1
    24    36    38    1
    25    31    32   ar
    26    32    33    1
    27     5     6   ar
    28     6     7   ar
    29     7     8   ar
    30     8     9   ar
    31     9    10   ar
    32    10    11    1
    33    15    16    1
    34    16    17    1
    35    16    18    1
    36    24    20    1
    37    18    12    1
    38    10     1   ar
    39     8     3   ar
    40    32    28   ar
    41    36    34    1
    42    19    25    1
    43    26    27    1
@<TRIPOS>MOLECULE
*****
 38 43 0 0 0
SMALL
GASTEIGER

@<TRIPOS>ATOM
      1 C         141.4809  143.0062  163.3408 C.ar    1  UNL1       -0.0077
      2 C         141.0948  141.9030  162.4006 C.ar    1  UNL1        0.0159
      3 C         141.0923  142.1457  160.9203 C.ar    1  UNL1        0.0854
      4 N         140.7061  141.0426  159.9802 N.ar    1  UNL1       -0.2136
      5 C         140.7036  141.2853  158.5000 C.ar    1  UNL1        0.2208
      6 N         141.0872  142.6311  157.9599 N.ar    1  UNL1       -0.2120
      7 C         141.4733  143.7342  158.9001 C.ar    1  UNL1        0.1033
      8 C         141.4759  143.4915  160.3803 C.ar    1  UNL1        0.0378
      9 C         141.8620  144.5947  161.3206 C.ar    1  UNL1        0.0141
     10 C         141.8645  144.3520  162.8008 C.ar    1  UNL1        0.0539
     11 CL        142.2507  145.4551  163.7411 Cl      1  UNL1       -0.0826
     12 N         141.4885  142.2782  167.7815 N.3     1  UNL1       -0.2674
     13 C         140.2245  142.7000  167.0928 C.3     1  UNL1        0.0727
     14 C         140.2220  142.9426  165.6126 C.3     1  UNL1        0.0245
     15 C         141.4835  142.7635  164.8211 C.3     1  UNL1        0.0586
     16 C         142.7475  142.3417  165.5098 C.3     1  UNL1        0.1808
     17 F         144.0090  142.1626  164.7183 F       1  UNL1       -0.2354
     18 C         142.7500  142.0991  166.9900 C.3     1  UNL1        0.1082
     19 O         140.0981  139.7547  169.3141 O.3     1  UNL1       -0.3804
     20 C         140.8520  140.8757  169.9662 C.3     1  UNL1        0.1569
     21 C         141.0991  141.0335  171.4373 C.3     1  UNL1        0.1727
     22 O         141.8909  142.2909  171.6421 O.3     1  UNL1       -0.3496
     23 C         142.1331  142.9102  170.2975 C.3     1  UNL1        0.1606
     24 C         141.4910  142.0356  169.2618 C.3     1  UNL1        0.1170
     25 H         139.7880  139.1355  169.9933 H       1  UNL1        0.2105
     26 N         140.3175  140.1821  157.5597 N.pl3   1  UNL1       -0.2794
     27 H         139.4578  140.2212  157.0815 H       1  UNL1        0.1552
     28 C         141.2412  139.0194  157.3480 C.ar    1  UNL1        0.1001
     29 C         142.7128  138.9983  157.6378 C.ar    1  UNL1        0.1372
     30 N         143.2366  137.6395  157.2783 N.ar    1  UNL1       -0.1654
     31 N         142.0888  136.8208  156.7663 N.ar    1  UNL1       -0.2353
     32 C         140.8556  137.6736  156.8094 C.ar    1  UNL1        0.1499
     33 CL        139.4784  137.2542  156.3879 Cl      1  UNL1       -0.0603
     34 C         142.1614  135.3989  156.2941 C.3     1  UNL1        0.1725
     35 C         141.7839  134.3385  155.3026 C.3     1  UNL1        0.0986
     36 C         142.6645  133.9965  156.4677 C.3     1  UNL1        0.2863
     37 F         142.8889  132.5369  156.2050 F       1  UNL1       -0.2022
     38 F         143.4672  134.1615  157.7242 F       1  UNL1       -0.2022
@<TRIPOS>BOND
     1    20    19    1
     2    20    21    1
     3    21    22    1
     4    22    23    1
     5    23    24    1
     6    24    12    1
     7    12    13    1
     8    13    14    1
     9    14    15    1
    10    15     1    1
    11     1     2   ar
    12     2     3   ar
    13     3     4   ar
    14     4     5   ar
    15     5    26    1
    16    26    28    1
    17    28    29   ar
    18    29    30   ar
    19    30    31   ar
    20    34    31    1
    21    34    35    1
    22    35    36    1
    23    36    37    1
    24    36    38    1
    25    31    32   ar
    26    32    33    1
    27     5     6   ar
    28     6     7   ar
    29     7     8   ar
    30     8     9   ar
    31     9    10   ar
    32    10    11    1
    33    15    16    1
    34    16    17    1
    35    16    18    1
    36    24    20    1
    37    18    12    1
    38    10     1   ar
    39     8     3   ar
    40    32    28   ar
    41    36    34    1
    42    19    25    1
    43    26    27    1
@<TRIPOS>MOLECULE
*****
 38 43 0 0 0
SMALL
GASTEIGER

@<TRIPOS>ATOM
      1 C         141.2322  139.6756  157.2160 C.ar    1  UNL1       -0.0077
      2 C         140.4323  139.9713  158.4499 C.ar    1  UNL1        0.0159
      3 C         140.1719  141.3928  158.8522 C.ar    1  UNL1        0.0854
      4 N         139.3719  141.6884  160.0861 N.ar    1  UNL1       -0.2136
      5 C         139.1115  143.1098  160.4884 C.ar    1  UNL1        0.2208
      6 N         139.6511  144.2355  159.6567 N.ar    1  UNL1       -0.2120
      7 C         140.4511  143.9398  158.4228 C.ar    1  UNL1        0.1033
      8 C         140.7115  142.5184  158.0206 C.ar    1  UNL1        0.0378
      9 C         141.5115  142.2227  156.7866 C.ar    1  UNL1        0.0141
     10 C         141.7718  140.8013  156.3844 C.ar    1  UNL1        0.0539
     11 CL        142.5719  140.5055  155.1504 Cl      1  UNL1       -0.0826
     12 N         142.0135  135.4114  156.0092 N.3     1  UNL1       -0.2674
     13 C         142.9704  136.1200  156.9215 C.3     1  UNL1        0.0727
     14 C         142.7100  137.5414  157.3237 C.3     1  UNL1        0.0245
     15 C         141.4926  138.2542  156.8137 C.3     1  UNL1        0.0586
     16 C         140.5358  137.5456  155.9015 C.3     1  UNL1        0.1808
     17 F         139.3184  138.2583  155.3915 F       1  UNL1       -0.2354
     18 C         140.7962  136.1242  155.4993 C.3     1  UNL1        0.1082
     19 O         143.0109  133.0113  157.9826 O.3     1  UNL1       -0.3804
     20 C         142.7323  132.8868  156.5140 C.3     1  UNL1        0.1569
     21 C         142.8634  131.6373  155.6946 C.3     1  UNL1        0.1727
     22 O         142.4859  131.9682  154.2810 O.3     1  UNL1       -0.3496
     23 C         142.1216  133.4223  154.2269 C.3     1  UNL1        0.1606
     24 C         142.2739  133.9900  155.6069 C.3     1  UNL1        0.1170
     25 H         143.2930  132.1516  158.3322 H       1  UNL1        0.2105
     26 N         138.3115  143.4056  161.7223 N.pl3   1  UNL1       -0.2794
     27 H         137.6014  144.0871  161.6970 H       1  UNL1        0.1552
     28 C         138.5934  142.6630  162.9948 C.ar    1  UNL1        0.1001
     29 C         139.3784  143.1817  164.1630 C.ar    1  UNL1        0.1372
     30 N         139.4100  142.1106  165.2126 N.ar    1  UNL1       -0.1654
     31 N         138.6444  140.9299  164.6932 N.ar    1  UNL1       -0.2353
     32 C         138.1397  141.2713  163.3225 C.ar    1  UNL1        0.1499
     33 CL        137.3245  140.3778  162.4353 Cl      1  UNL1       -0.0603
     34 C         138.4225  139.6351  165.4172 C.3     1  UNL1        0.1725
     35 C         137.9820  138.8912  166.6431 C.3     1  UNL1        0.0986
     36 C         138.4784  138.1365  165.4456 C.3     1  UNL1        0.2863
     37 F         138.3460  136.7303  165.9508 F       1  UNL1       -0.2022
     38 F         139.0208  137.8701  164.0727 F       1  UNL1       -0.2022
@<TRIPOS>BOND
     1    20    19    1
     2    20    21    1
     3    21    22    1
     4    22    23    1
     5    23    24    1
     6    24    12    1
     7    12    13    1
     8    13    14    1
     9    14    15    1
    10    15     1    1
    11     1     2   ar
    12     2     3   ar
    13     3     4   ar
    14     4     5   ar
    15     5    26    1
    16    26    28    1
    17    28    29   ar
    18    29    30   ar
    19    30    31   ar
    20    34    31    1
    21    34    35    1
    22    35    36    1
    23    36    37    1
    24    36    38    1
    25    31    32   ar
    26    32    33    1
    27     5     6   ar
    28     6     7   ar
    29     7     8   ar
    30     8     9   ar
    31     9    10   ar
    32    10    11    1
    33    15    16    1
    34    16    17    1
    35    16    18    1
    36    24    20    1
    37    18    12    1
    38    10     1   ar
    39     8     3   ar
    40    32    28   ar
    41    36    34    1
    42    19    25    1
    43    26    27    1
@<TRIPOS>MOLECULE
*****
 38 43 0 0 0
SMALL
GASTEIGER

@<TRIPOS>ATOM
      1 C         142.2071  139.2932  163.6264 C.ar    1  UNL1       -0.0077
      2 C         142.8667  140.2539  162.6819 C.ar    1  UNL1        0.0159
      3 C         143.0696  139.8732  161.2452 C.ar    1  UNL1        0.0854
      4 N         143.7292  140.8339  160.3008 N.ar    1  UNL1       -0.2136
      5 C         143.9320  140.4532  158.8642 C.ar    1  UNL1        0.2208
      6 N         143.4753  139.1119  158.3720 N.ar    1  UNL1       -0.2120
      7 C         142.8157  138.1512  159.3164 C.ar    1  UNL1        0.1033
      8 C         142.6128  138.5319  160.7531 C.ar    1  UNL1        0.0378
      9 C         141.9532  137.5712  161.6976 C.ar    1  UNL1        0.0141
     10 C         141.7504  137.9519  163.1342 C.ar    1  UNL1        0.0539
     11 CL        141.0908  136.9912  164.0787 Cl      1  UNL1       -0.0826
     12 N         141.5984  140.4352  167.9363 N.3     1  UNL1       -0.2674
     13 C         140.6385  140.9181  166.8897 C.3     1  UNL1        0.0727
     14 C         140.8414  140.5374  165.4531 C.3     1  UNL1        0.0245
     15 C         142.0042  139.6739  165.0631 C.3     1  UNL1        0.0586
     16 C         142.9642  139.1910  166.1096 C.3     1  UNL1        0.1808
     17 F         144.1270  138.3274  165.7196 F       1  UNL1       -0.2354
     18 C         142.7612  139.5716  167.5462 C.3     1  UNL1        0.1082
     19 O         143.1027  142.8683  169.5069 O.3     1  UNL1       -0.3804
     20 C         142.0870  141.9342  170.0949 C.3     1  UNL1        0.1569
     21 C         141.5844  141.9544  171.5080 C.3     1  UNL1        0.1727
     22 O         140.5823  140.8485  171.6595 O.3     1  UNL1       -0.3496
     23 C         140.4656  140.1448  170.3400 C.3     1  UNL1        0.1606
     24 C         141.3956  140.8158  169.3730 C.3     1  UNL1        0.1170
     25 H         143.3927  143.4987  170.1847 H       1  UNL1        0.2105
     26 N         144.5916  141.4139  157.9196 N.pl3   1  UNL1       -0.2794
     27 H         145.5738  141.4601  157.8707 H       1  UNL1        0.1552
     28 C         143.7547  142.3043  157.0497 C.ar    1  UNL1        0.1001
     29 C         143.6050  142.1947  155.5612 C.ar    1  UNL1        0.1372
     30 N         142.6783  143.2833  155.1071 N.ar    1  UNL1       -0.1654
     31 N         142.2552  144.0657  156.3149 N.ar    1  UNL1       -0.2353
     32 C         142.9205  143.4607  157.5155 C.ar    1  UNL1        0.1499
     33 CL        142.7768  143.9297  158.9330 Cl      1  UNL1       -0.0603
     34 C         141.3295  145.2459  156.3211 C.3     1  UNL1        0.1725
     35 C         140.7683  146.4603  155.6426 C.3     1  UNL1        0.0986
     36 C         140.2873  146.0759  157.0104 C.3     1  UNL1        0.2863
     37 F         139.2922  147.1715  157.2540 F       1  UNL1       -0.2022
     38 F         140.1520  145.3110  158.2936 F       1  UNL1       -0.2022
@<TRIPOS>BOND
     1    20    19    1
     2    20    21    1
     3    21    22    1
     4    22    23    1
     5    23    24    1
     6    24    12    1
     7    12    13    1
     8    13    14    1
     9    14    15    1
    10    15     1    1
    11     1     2   ar
    12     2     3   ar
    13     3     4   ar
    14     4     5   ar
    15     5    26    1
    16    26    28    1
    17    28    29   ar
    18    29    30   ar
    19    30    31   ar
    20    34    31    1
    21    34    35    1
    22    35    36    1
    23    36    37    1
    24    36    38    1
    25    31    32   ar
    26    32    33    1
    27     5     6   ar
    28     6     7   ar
    29     7     8   ar
    30     8     9   ar
    31     9    10   ar
    32    10    11    1
    33    15    16    1
    34    16    17    1
    35    16    18    1
    36    24    20    1
    37    18    12    1
    38    10     1   ar
    39     8     3   ar
    40    32    28   ar
    41    36    34    1
    42    19    25    1
    43    26    27    1
@<TRIPOS>MOLECULE
*****
 38 43 0 0 0
SMALL
GASTEIGER

@<TRIPOS>ATOM
      1 C         142.2888  142.6419  163.3160 C.ar    1  UNL1       -0.0077
      2 C         142.6990  141.4633  162.4838 C.ar    1  UNL1        0.0159
      3 C         142.9315  141.6294  161.0112 C.ar    1  UNL1        0.0854
      4 N         143.3417  140.4508  160.1790 N.ar    1  UNL1       -0.2136
      5 C         143.5741  140.6170  158.7065 C.ar    1  UNL1        0.2208
      6 N         143.3964  141.9618  158.0662 N.ar    1  UNL1       -0.2120
      7 C         142.9862  143.1404  158.8984 C.ar    1  UNL1        0.1033
      8 C         142.7538  142.9742  160.3709 C.ar    1  UNL1        0.0378
      9 C         142.3436  144.1529  161.2032 C.ar    1  UNL1        0.0141
     10 C         142.1111  143.9867  162.6757 C.ar    1  UNL1        0.0539
     11 CL        141.7009  145.1653  163.5080 Cl      1  UNL1       -0.0826
     12 N         141.5913  142.1435  167.7336 N.3     1  UNL1       -0.2674
     13 C         140.4396  142.0497  166.7772 C.3     1  UNL1        0.0727
     14 C         140.6721  142.2159  165.3047 C.3     1  UNL1        0.0245
     15 C         142.0564  142.4758  164.7886 C.3     1  UNL1        0.0586
     16 C         143.2081  142.5695  165.7450 C.3     1  UNL1        0.1808
     17 F         144.5923  142.8294  165.2289 F       1  UNL1       -0.2354
     18 C         142.9756  142.4034  167.2175 C.3     1  UNL1        0.1082
     19 O         142.9991  139.9158  169.6586 O.3     1  UNL1       -0.3804
     20 C         142.0059  140.9534  170.0909 C.3     1  UNL1        0.1569
     21 C         141.4855  141.1492  171.4840 C.3     1  UNL1        0.1727
     22 O         140.5167  142.2942  171.4603 O.3     1  UNL1       -0.3496
     23 C         140.4384  142.8060  170.0525 C.3     1  UNL1        0.1606
     24 C         141.3589  141.9773  169.2062 C.3     1  UNL1        0.1170
     25 H         143.2609  139.3801  170.4237 H       1  UNL1        0.2105
     26 N         143.9844  139.4384  157.8742 N.pl3   1  UNL1       -0.2794
     27 H         144.9378  139.2691  157.6967 H       1  UNL1        0.1552
     28 C         142.9418  138.5177  157.3125 C.ar    1  UNL1        0.1001
     29 C         141.5191  138.4099  157.7753 C.ar    1  UNL1        0.1372
     30 N         140.8370  137.3688  156.9381 N.ar    1  UNL1       -0.1654
     31 N         141.8381  136.8332  155.9578 N.ar    1  UNL1       -0.2353
     32 C         143.1390  137.5433  156.1892 C.ar    1  UNL1        0.1499
     33 CL        144.4133  137.3185  155.4305 Cl      1  UNL1       -0.0603
     34 C         141.5832  135.7737  154.9272 C.3     1  UNL1        0.1725
     35 C         141.3436  135.3812  153.4994 C.3     1  UNL1        0.0986
     36 C         141.3813  134.3310  154.5697 C.3     1  UNL1        0.2863
     37 F         141.1367  133.1051  153.7405 F       1  UNL1       -0.2022
     38 F         141.5039  133.7064  155.9281 F       1  UNL1       -0.2022
@<TRIPOS>BOND
     1    20    19    1
     2    20    21    1
     3    21    22    1
     4    22    23    1
     5    23    24    1
     6    24    12    1
     7    12    13    1
     8    13    14    1
     9    14    15    1
    10    15     1    1
    11     1     2   ar
    12     2     3   ar
    13     3     4   ar
    14     4     5   ar
    15     5    26    1
    16    26    28    1
    17    28    29   ar
    18    29    30   ar
    19    30    31   ar
    20    34    31    1
    21    34    35    1
    22    35    36    1
    23    36    37    1
    24    36    38    1
    25    31    32   ar
    26    32    33    1
    27     5     6   ar
    28     6     7   ar
    29     7     8   ar
    30     8     9   ar
    31     9    10   ar
    32    10    11    1
    33    15    16    1
    34    16    17    1
    35    16    18    1
    36    24    20    1
    37    18    12    1
    38    10     1   ar
    39     8     3   ar
    40    32    28   ar
    41    36    34    1
    42    19    25    1
    43    26    27    1
@<TRIPOS>MOLECULE
*****
 38 43 0 0 0
SMALL
GASTEIGER

@<TRIPOS>ATOM
      1 C         140.1180  139.8675  162.9074 C.ar    1  UNL1       -0.0077
      2 C         140.6225  140.9104  161.9546 C.ar    1  UNL1        0.0159
      3 C         140.3808  140.7604  160.4818 C.ar    1  UNL1        0.0854
      4 N         140.8853  141.8033  159.5290 N.ar    1  UNL1       -0.2136
      5 C         140.6436  141.6533  158.0562 C.ar    1  UNL1        0.2208
      6 N         139.8975  140.4605  157.5363 N.ar    1  UNL1       -0.2120
      7 C         139.3930  139.4176  158.4890 C.ar    1  UNL1        0.1033
      8 C         139.6346  139.5676  159.9618 C.ar    1  UNL1        0.0378
      9 C         139.1301  138.5247  160.9147 C.ar    1  UNL1        0.0141
     10 C         139.3718  138.6747  162.3874 C.ar    1  UNL1        0.0539
     11 CL        138.8673  137.6318  163.3403 Cl      1  UNL1       -0.0826
     12 N         140.8428  140.3174  167.3258 N.3     1  UNL1       -0.2674
     13 C         139.7297  141.0771  166.6672 C.3     1  UNL1        0.0727
     14 C         139.4881  140.9271  165.1945 C.3     1  UNL1        0.0245
     15 C         140.3596  140.0174  164.3802 C.3     1  UNL1        0.0586
     16 C         141.4727  139.2577  165.0388 C.3     1  UNL1        0.1808
     17 F         142.3443  138.3480  164.2246 F       1  UNL1       -0.2354
     18 C         141.7144  139.4077  166.5116 C.3     1  UNL1        0.1082
     19 O         138.6322  139.8820  169.6865 O.3     1  UNL1       -0.3804
     20 C         140.0684  140.2672  169.8837 C.3     1  UNL1        0.1569
     21 C         140.7406  140.5199  171.2006 C.3     1  UNL1        0.1727
     22 O         142.1723  140.8762  170.9294 O.3     1  UNL1       -0.3496
     23 C         142.3848  140.8437  169.4449 C.3     1  UNL1        0.1606
     24 C         141.0845  140.4673  168.7986 C.3     1  UNL1        0.1170
     25 H         138.1930  139.8188  170.5491 H       1  UNL1        0.2105
     26 N         141.1482  142.6962  157.1033 N.pl3   1  UNL1       -0.2794
     27 H         142.0883  142.6827  156.8114 H       1  UNL1        0.1552
     28 C         140.2202  143.7596  156.5952 C.ar    1  UNL1        0.1001
     29 C         138.8242  143.5440  156.0907 C.ar    1  UNL1        0.1372
     30 N         138.2665  144.8764  155.6861 N.ar    1  UNL1       -0.1654
     31 N         139.3180  145.9155  155.9405 N.ar    1  UNL1       -0.2353
     32 C         140.5254  145.2253  156.5024 C.ar    1  UNL1        0.1499
     33 CL        141.8121  145.8849  156.9013 Cl      1  UNL1       -0.0603
     34 C         139.1853  147.3865  155.6790 C.3     1  UNL1        0.1725
     35 C         139.2929  148.5546  154.7441 C.3     1  UNL1        0.0986
     36 C         138.8480  148.7664  156.1608 C.3     1  UNL1        0.2863
     37 F         138.6401  150.2519  156.1493 F       1  UNL1       -0.2022
     38 F         138.4753  148.4622  157.5816 F       1  UNL1       -0.2022
@<TRIPOS>BOND
     1    20    19    1
     2    20    21    1
     3    21    22    1
     4    22    23    1
     5    23    24    1
     6    24    12    1
     7    12    13    1
     8    13    14    1
     9    14    15    1
    10    15     1    1
    11     1     2   ar
    12     2     3   ar
    13     3     4   ar
    14     4     5   ar
    15     5    26    1
    16    26    28    1
    17    28    29   ar
    18    29    30   ar
    19    30    31   ar
    20    34    31    1
    21    34    35    1
    22    35    36    1
    23    36    37    1
    24    36    38    1
    25    31    32   ar
    26    32    33    1
    27     5     6   ar
    28     6     7   ar
    29     7     8   ar
    30     8     9   ar
    31     9    10   ar
    32    10    11    1
    33    15    16    1
    34    16    17    1
    35    16    18    1
    36    24    20    1
    37    18    12    1
    38    10     1   ar
    39     8     3   ar
    40    32    28   ar
    41    36    34    1
    42    19    25    1
    43    26    27    1
