@<TRIPOS>MOLECULE
*****
 39 43 0 0 0
SMALL
GASTEIGER

@<TRIPOS>ATOM
      1 C         143.6430  138.3224  166.0782 C.3     1  UNL1        0.0542
      2 C         144.7085  139.1870  165.4724 C.3     1  UNL1        0.0162
      3 C         144.6620  139.5215  164.0109 C.3     1  UNL1        0.0104
      4 C         143.5499  138.9914  163.1553 C.3     1  UNL1        0.0768
      5 C         142.4843  138.1268  163.7611 C.3     1  UNL1        0.0095
      6 C         141.2542  137.2757  163.8728 C.3     1  UNL1        0.0005
      7 C         142.0105  138.1657  162.3384 C.3     1  UNL1        0.0005
      8 C         142.5308  137.7923  165.2225 C.3     1  UNL1        0.0162
      9 C         143.5033  139.3259  161.6938 C.2     1  UNL1        0.2251
     10 O         144.1914  138.4387  160.6990 O.2     1  UNL1       -0.2749
     11 N         142.7687  140.5476  161.2270 N.am    1  UNL1       -0.2795
     12 C         142.0807  141.4347  162.2217 C.3     1  UNL1        0.0942
     13 C         141.3461  142.6565  161.7550 C.3     1  UNL1        0.0344
     14 C         141.2995  142.9910  160.2935 C.3     1  UNL1        0.0924
     15 C         141.9876  142.1037  159.2988 C.3     1  UNL1        0.0344
     16 C         142.7222  140.8821  159.7655 C.3     1  UNL1        0.0942
     17 C         140.9749  143.7217  159.0245 C.ar    1  UNL1       -0.0143
     18 C         141.9474  144.7152  158.4613 C.ar    1  UNL1       -0.0038
     19 C         141.6227  145.4459  157.1921 C.ar    1  UNL1       -0.0003
     20 C         140.3256  145.1832  156.4863 C.ar    1  UNL1       -0.0000
     21 C         139.3531  144.1898  157.0495 C.ar    1  UNL1       -0.0003
     22 C         139.6777  143.4590  158.3186 C.ar    1  UNL1       -0.0038
     23 C         140.4987  144.1319  160.8475 C.ar    1  UNL1        0.2295
     24 N         139.1539  144.0285  161.5038 N.ar    1  UNL1       -0.1109
     25 N         138.7262  145.4092  161.9044 N.ar    1  UNL1       -0.1022
     26 C         139.8067  146.3660  161.4958 C.ar    1  UNL1        0.3057
     27 O         140.9022  145.5766  160.8426 O.2     1  UNL1       -0.4157
     28 N         143.6896  137.9879  167.5397 N.3     1  UNL1       -0.2962
     29 H         143.3665  137.0248  167.6318 H       1  UNL1        0.1235
     30 C         142.9025  138.8044  168.5214 C.3     1  UNL1        0.0768
     31 C         142.8881  138.4239  169.9722 C.3     1  UNL1        0.0220
     32 C         140.5842  142.3954  167.1141 C.ar    1  UNL1        0.1387
     33 C         142.0117  142.5475  167.5490 C.ar    1  UNL1        0.0366
     34 C         142.7844  141.3505  168.0181 C.ar    1  UNL1        0.0001
     35 C         142.1297  140.0014  168.0523 C.ar    1  UNL1       -0.0078
     36 C         140.7023  139.8493  167.6174 C.ar    1  UNL1        0.0001
     37 C         139.9295  141.0463  167.1482 C.ar    1  UNL1        0.0366
     38 C         139.2519  143.6257  165.2537 C.3     1  UNL1        0.2525
     39 O         139.8115  143.5924  166.6450 O.3     1  UNL1       -0.4714
@<TRIPOS>BOND
     1    38    39    1
     2    39    32    1
     3    32    33   ar
     4    33    34   ar
     5    34    35   ar
     6    35    30    1
     7    30    31    1
     8    30    28    1
     9     1    28    1
    10     1     2    1
    11     2     3    1
    12     3     4    1
    13     4     9    1
    14     9    10    2
    15     9    11   am
    16    11    12    1
    17    12    13    1
    18    13    14    1
    19    14    17    1
    20    17    18   ar
    21    18    19   ar
    22    19    20   ar
    23    20    21   ar
    24    21    22   ar
    25    14    23    1
    26    23    24   ar
    27    24    25   ar
    28    25    26   ar
    29    26    27   ar
    30    14    15    1
    31    15    16    1
    32     4     5    1
    33     5     6    1
    34     5     7    1
    35     5     8    1
    36    35    36   ar
    37    36    37   ar
    38    37    32   ar
    39     8     1    1
    40    16    11    1
    41    22    17   ar
    42    27    23   ar
    43    28    29    1
@<TRIPOS>MOLECULE
*****
 39 43 0 0 0
SMALL
GASTEIGER

@<TRIPOS>ATOM
      1 C         140.5195  144.6494  158.5062 C.3     1  UNL1        0.0542
      2 C         141.6678  143.6923  158.6304 C.3     1  UNL1        0.0162
      3 C         142.3616  143.5204  159.9491 C.3     1  UNL1        0.0104
      4 C         141.9071  144.3055  161.1437 C.3     1  UNL1        0.0768
      5 C         140.7588  145.2626  161.0196 C.3     1  UNL1        0.0095
      6 C         139.7270  146.2830  161.3992 C.3     1  UNL1        0.0005
      7 C         141.0943  145.4450  162.4701 C.3     1  UNL1        0.0005
      8 C         140.0650  145.4345  159.7008 C.3     1  UNL1        0.0162
      9 C         142.6009  144.1335  162.4624 C.2     1  UNL1        0.2251
     10 O         143.7930  144.9797  162.7987 O.2     1  UNL1       -0.2749
     11 N         142.1027  143.1155  163.4449 N.am    1  UNL1       -0.2795
     12 C         140.9107  142.2694  163.1087 C.3     1  UNL1        0.0942
     13 C         140.4124  141.2513  164.0912 C.3     1  UNL1        0.0344
     14 C         141.1062  141.0793  165.4099 C.3     1  UNL1        0.0924
     15 C         142.2983  141.9255  165.7461 C.3     1  UNL1        0.0344
     16 C         142.7965  142.9435  164.7636 C.3     1  UNL1        0.0942
     17 C         141.4244  140.5496  166.7767 C.ar    1  UNL1       -0.0143
     18 C         142.5090  139.5283  166.9514 C.ar    1  UNL1       -0.0038
     19 C         142.8272  138.9986  168.3183 C.ar    1  UNL1       -0.0003
     20 C         142.0609  139.4902  169.5103 C.ar    1  UNL1       -0.0000
     21 C         140.9763  140.5116  169.3355 C.ar    1  UNL1       -0.0003
     22 C         140.6581  141.0413  167.9687 C.ar    1  UNL1       -0.0038
     23 C         140.0247  140.0492  165.5483 C.ar    1  UNL1        0.2295
     24 N         138.6143  140.3056  165.9899 N.ar    1  UNL1       -0.1109
     25 N         137.8815  138.9968  165.9840 N.ar    1  UNL1       -0.1022
     26 C         138.8391  137.9315  165.5387 C.ar    1  UNL1        0.3057
     27 O         140.1636  138.5820  165.2694 O.2     1  UNL1       -0.4157
     28 N         139.8257  144.8213  157.1875 N.3     1  UNL1       -0.2962
     29 H         139.7520  143.8934  156.7704 H       1  UNL1        0.1235
     30 C         140.4149  145.7207  156.1417 C.3     1  UNL1        0.0768
     31 C         141.5846  145.2562  155.3256 C.3     1  UNL1        0.0220
     32 C         138.6736  149.8125  155.4522 C.ar    1  UNL1        0.1387
     33 C         138.4017  149.0885  156.7374 C.ar    1  UNL1        0.0366
     34 C         138.9821  147.7245  156.9673 C.ar    1  UNL1        0.0001
     35 C         139.8345  147.0846  155.9119 C.ar    1  UNL1       -0.0078
     36 C         140.1064  147.8086  154.6266 C.ar    1  UNL1        0.0001
     37 C         139.5260  149.1725  154.3968 C.ar    1  UNL1        0.0366
     38 C         138.9993  152.3639  155.0861 C.3     1  UNL1        0.2525
     39 O         138.0932  151.1764  155.2224 O.3     1  UNL1       -0.4714
@<TRIPOS>BOND
     1    38    39    1
     2    39    32    1
     3    32    33   ar
     4    33    34   ar
     5    34    35   ar
     6    35    30    1
     7    30    31    1
     8    30    28    1
     9     1    28    1
    10     1     2    1
    11     2     3    1
    12     3     4    1
    13     4     9    1
    14     9    10    2
    15     9    11   am
    16    11    12    1
    17    12    13    1
    18    13    14    1
    19    14    17    1
    20    17    18   ar
    21    18    19   ar
    22    19    20   ar
    23    20    21   ar
    24    21    22   ar
    25    14    23    1
    26    23    24   ar
    27    24    25   ar
    28    25    26   ar
    29    26    27   ar
    30    14    15    1
    31    15    16    1
    32     4     5    1
    33     5     6    1
    34     5     7    1
    35     5     8    1
    36    35    36   ar
    37    36    37   ar
    38    37    32   ar
    39     8     1    1
    40    16    11    1
    41    22    17   ar
    42    27    23   ar
    43    28    29    1
@<TRIPOS>MOLECULE
*****
 39 43 0 0 0
SMALL
GASTEIGER

@<TRIPOS>ATOM
      1 C         138.5890  141.0011  164.1677 C.3     1  UNL1        0.0542
      2 C         139.7031  140.6296  163.2345 C.3     1  UNL1        0.0162
      3 C         140.3659  141.6853  162.4001 C.3     1  UNL1        0.0104
      4 C         139.9148  143.1123  162.4989 C.3     1  UNL1        0.0768
      5 C         138.8007  143.4839  163.4321 C.3     1  UNL1        0.0095
      6 C         137.7956  144.3232  164.1638 C.3     1  UNL1        0.0005
      7 C         139.1145  144.8310  162.8518 C.3     1  UNL1        0.0005
      8 C         138.1378  142.4282  164.2665 C.3     1  UNL1        0.0162
      9 C         140.5776  144.1680  161.6645 C.2     1  UNL1        0.2251
     10 O         141.5462  145.1241  162.2953 O.2     1  UNL1       -0.2749
     11 N         140.2720  144.2676  160.1994 N.am    1  UNL1       -0.2795
     12 C         139.3034  143.3115  159.5687 C.3     1  UNL1        0.0942
     13 C         138.9977  143.4110  158.1035 C.3     1  UNL1        0.0344
     14 C         139.6606  144.4667  157.2691 C.3     1  UNL1        0.0924
     15 C         140.6292  145.4228  157.8999 C.3     1  UNL1        0.0344
     16 C         140.9348  145.3232  159.3650 C.3     1  UNL1        0.0942
     17 C         140.0319  145.2895  156.0712 C.ar    1  UNL1       -0.0143
     18 C         140.9704  144.7340  155.0413 C.ar    1  UNL1       -0.0038
     19 C         141.3416  145.5569  153.8434 C.ar    1  UNL1       -0.0003
     20 C         140.7745  146.9352  153.6752 C.ar    1  UNL1       -0.0000
     21 C         139.8360  147.4907  154.7051 C.ar    1  UNL1       -0.0003
     22 C         139.4647  146.6679  155.9031 C.ar    1  UNL1       -0.0038
     23 C         138.8210  143.7964  156.2223 C.ar    1  UNL1        0.2295
     24 N         139.0045  142.4001  155.7058 N.ar    1  UNL1       -0.1109
     25 N         137.9474  142.1454  154.6726 N.ar    1  UNL1       -0.1022
     26 C         137.1106  143.3842  154.5505 C.ar    1  UNL1        0.3057
     27 O         137.6504  144.4046  155.5083 O.2     1  UNL1       -0.4157
     28 N         137.9262  139.9454  165.0021 N.3     1  UNL1       -0.2962
     29 H         137.3257  140.4309  165.6686 H       1  UNL1        0.1235
     30 C         138.7598  138.9812  165.7928 C.3     1  UNL1        0.0768
     31 C         138.6195  137.5055  165.5639 C.3     1  UNL1        0.0220
     32 C         141.6820  140.5157  168.8516 C.ar    1  UNL1        0.1387
     33 C         140.2222  140.4303  169.1857 C.ar    1  UNL1        0.0366
     34 C         139.2481  139.9187  168.1661 C.ar    1  UNL1        0.0001
     35 C         139.7339  139.4927  166.8124 C.ar    1  UNL1       -0.0078
     36 C         141.1937  139.5782  166.4783 C.ar    1  UNL1        0.0001
     37 C         142.1677  140.0897  167.4979 C.ar    1  UNL1        0.0366
     38 C         143.5168  142.2147  169.5566 C.3     1  UNL1        0.2525
     39 O         142.6560  141.0272  169.8712 O.3     1  UNL1       -0.4714
@<TRIPOS>BOND
     1    38    39    1
     2    39    32    1
     3    32    33   ar
     4    33    34   ar
     5    34    35   ar
     6    35    30    1
     7    30    31    1
     8    30    28    1
     9     1    28    1
    10     1     2    1
    11     2     3    1
    12     3     4    1
    13     4     9    1
    14     9    10    2
    15     9    11   am
    16    11    12    1
    17    12    13    1
    18    13    14    1
    19    14    17    1
    20    17    18   ar
    21    18    19   ar
    22    19    20   ar
    23    20    21   ar
    24    21    22   ar
    25    14    23    1
    26    23    24   ar
    27    24    25   ar
    28    25    26   ar
    29    26    27   ar
    30    14    15    1
    31    15    16    1
    32     4     5    1
    33     5     6    1
    34     5     7    1
    35     5     8    1
    36    35    36   ar
    37    36    37   ar
    38    37    32   ar
    39     8     1    1
    40    16    11    1
    41    22    17   ar
    42    27    23   ar
    43    28    29    1
@<TRIPOS>MOLECULE
*****
 39 43 0 0 0
SMALL
GASTEIGER

@<TRIPOS>ATOM
      1 C         141.6003  142.1820  166.3281 C.3     1  UNL1        0.0542
      2 C         142.9269  141.6028  165.9350 C.3     1  UNL1        0.0162
      3 C         143.5868  142.0372  164.6600 C.3     1  UNL1        0.0104
      4 C         142.9202  143.0510  163.7780 C.3     1  UNL1        0.0768
      5 C         141.5935  143.6303  164.1711 C.3     1  UNL1        0.0095
      6 C         140.3456  144.4605  164.1145 C.3     1  UNL1        0.0005
      7 C         141.8200  144.3531  162.8764 C.3     1  UNL1        0.0005
      8 C         140.9336  143.1958  165.4461 C.3     1  UNL1        0.0162
      9 C         143.5801  143.4854  162.5030 C.2     1  UNL1        0.2251
     10 O         144.3592  144.7666  162.4604 O.2     1  UNL1       -0.2749
     11 N         143.4610  142.6388  161.2705 N.am    1  UNL1       -0.2795
     12 C         142.6820  141.3577  161.3131 C.3     1  UNL1        0.0942
     13 C         142.5628  140.5110  160.0806 C.3     1  UNL1        0.0344
     14 C         143.2228  140.9455  158.8055 C.3     1  UNL1        0.0924
     15 C         144.0018  142.2266  158.7630 C.3     1  UNL1        0.0344
     16 C         144.1210  143.0733  159.9955 C.3     1  UNL1        0.0942
     17 C         143.6655  140.9336  157.3725 C.ar    1  UNL1       -0.0143
     18 C         142.6709  141.1847  156.2781 C.ar    1  UNL1       -0.0038
     19 C         143.1138  141.1728  154.8449 C.ar    1  UNL1       -0.0003
     20 C         144.5511  140.9099  154.5062 C.ar    1  UNL1       -0.0000
     21 C         145.5456  140.6587  155.6006 C.ar    1  UNL1       -0.0003
     22 C         145.1030  140.6706  157.0337 C.ar    1  UNL1       -0.0038
     23 C         142.5975  139.6602  158.3504 C.ar    1  UNL1        0.2295
     24 N         141.1280  139.3999  158.1989 N.ar    1  UNL1       -0.1109
     25 N         140.9542  137.9885  157.7217 N.ar    1  UNL1       -0.1022
     26 C         142.3162  137.3766  157.5784 C.ar    1  UNL1        0.3057
     27 O         143.3318  138.4098  157.9670 O.2     1  UNL1       -0.4157
     28 N         140.9404  141.7476  167.6031 N.3     1  UNL1       -0.2962
     29 H         141.6872  141.4882  168.2477 H       1  UNL1        0.1235
     30 C         139.9634  140.6095  167.5920 C.3     1  UNL1        0.0768
     31 C         139.3117  140.1680  168.8688 C.3     1  UNL1        0.0220
     32 C         138.9874  138.5197  163.7280 C.ar    1  UNL1        0.1387
     33 C         138.1921  139.7179  164.1543 C.ar    1  UNL1        0.0366
     34 C         138.5174  140.4145  165.4423 C.ar    1  UNL1        0.0001
     35 C         139.6380  139.9129  166.3040 C.ar    1  UNL1       -0.0078
     36 C         140.4333  138.7146  165.8777 C.ar    1  UNL1        0.0001
     37 C         140.1079  138.0181  164.5897 C.ar    1  UNL1        0.0366
     38 C         139.4163  138.1671  161.1900 C.3     1  UNL1        0.2525
     39 O         138.6620  137.8231  162.4400 O.3     1  UNL1       -0.4714
@<TRIPOS>BOND
     1    38    39    1
     2    39    32    1
     3    32    33   ar
     4    33    34   ar
     5    34    35   ar
     6    35    30    1
     7    30    31    1
     8    30    28    1
     9     1    28    1
    10     1     2    1
    11     2     3    1
    12     3     4    1
    13     4     9    1
    14     9    10    2
    15     9    11   am
    16    11    12    1
    17    12    13    1
    18    13    14    1
    19    14    17    1
    20    17    18   ar
    21    18    19   ar
    22    19    20   ar
    23    20    21   ar
    24    21    22   ar
    25    14    23    1
    26    23    24   ar
    27    24    25   ar
    28    25    26   ar
    29    26    27   ar
    30    14    15    1
    31    15    16    1
    32     4     5    1
    33     5     6    1
    34     5     7    1
    35     5     8    1
    36    35    36   ar
    37    36    37   ar
    38    37    32   ar
    39     8     1    1
    40    16    11    1
    41    22    17   ar
    42    27    23   ar
    43    28    29    1
@<TRIPOS>MOLECULE
*****
 39 43 0 0 0
SMALL
GASTEIGER

@<TRIPOS>ATOM
      1 C         140.8955  144.3483  158.2251 C.3     1  UNL1        0.0542
      2 C         140.3113  145.0732  159.4012 C.3     1  UNL1        0.0162
      3 C         140.9603  144.9615  160.7489 C.3     1  UNL1        0.0104
      4 C         142.1934  144.1249  160.9206 C.3     1  UNL1        0.0768
      5 C         142.7776  143.4000  159.7444 C.3     1  UNL1        0.0095
      6 C         143.6982  142.5315  158.9392 C.3     1  UNL1        0.0005
      7 C         143.7463  142.9867  160.8125 C.3     1  UNL1        0.0005
      8 C         142.1286  143.5117  158.3967 C.3     1  UNL1        0.0162
      9 C         142.8423  144.0132  162.2683 C.2     1  UNL1        0.2251
     10 O         144.0288  144.8680  162.6026 O.2     1  UNL1       -0.2749
     11 N         142.3049  143.0467  163.2817 N.am    1  UNL1       -0.2795
     12 C         141.1185  142.1920  162.9474 C.3     1  UNL1        0.0942
     13 C         140.5810  141.2254  163.9608 C.3     1  UNL1        0.0344
     14 C         141.2300  141.1137  165.3086 C.3     1  UNL1        0.0924
     15 C         142.4164  141.9686  165.6429 C.3     1  UNL1        0.0344
     16 C         142.9539  142.9350  164.6294 C.3     1  UNL1        0.0942
     17 C         141.4994  140.6492  166.7091 C.ar    1  UNL1       -0.0143
     18 C         140.7153  141.2210  167.8529 C.ar    1  UNL1       -0.0038
     19 C         140.9848  140.7564  169.2535 C.ar    1  UNL1       -0.0003
     20 C         142.0382  139.7200  169.5103 C.ar    1  UNL1       -0.0000
     21 C         142.8223  139.1482  168.3665 C.ar    1  UNL1       -0.0003
     22 C         142.5529  139.6127  166.9659 C.ar    1  UNL1       -0.0038
     23 C         140.1371  140.0976  165.4607 C.ar    1  UNL1        0.2295
     24 N         140.2475  138.6323  165.1593 N.ar    1  UNL1       -0.1109
     25 N         138.9207  137.9975  165.4532 N.ar    1  UNL1       -0.1022
     26 C         137.9903  139.0704  165.9361 C.ar    1  UNL1        0.3057
     27 O         138.7421  140.3684  165.9408 O.2     1  UNL1       -0.4157
     28 N         140.2465  144.4600  156.8774 N.3     1  UNL1       -0.2962
     29 H         140.3300  143.5454  156.4336 H       1  UNL1        0.1235
     30 C         140.7452  145.4693  155.8862 C.3     1  UNL1        0.0768
     31 C         141.9213  145.1456  155.0134 C.3     1  UNL1        0.0220
     32 C         138.7128  149.4685  155.5309 C.ar    1  UNL1        0.1387
     33 C         139.5560  148.9528  154.4026 C.ar    1  UNL1        0.0366
     34 C         140.2335  147.6198  154.5210 C.ar    1  UNL1        0.0001
     35 C         140.0677  146.8024  155.7677 C.ar    1  UNL1       -0.0078
     36 C         139.2245  147.3180  156.8960 C.ar    1  UNL1        0.0001
     37 C         138.5471  148.6511  156.7776 C.ar    1  UNL1        0.0366
     38 C         138.8545  152.0568  155.3573 C.3     1  UNL1        0.2525
     39 O         138.0354  150.8015  155.4124 O.3     1  UNL1       -0.4714
@<TRIPOS>BOND
     1    38    39    1
     2    39    32    1
     3    32    33   ar
     4    33    34   ar
     5    34    35   ar
     6    35    30    1
     7    30    31    1
     8    30    28    1
     9     1    28    1
    10     1     2    1
    11     2     3    1
    12     3     4    1
    13     4     9    1
    14     9    10    2
    15     9    11   am
    16    11    12    1
    17    12    13    1
    18    13    14    1
    19    14    17    1
    20    17    18   ar
    21    18    19   ar
    22    19    20   ar
    23    20    21   ar
    24    21    22   ar
    25    14    23    1
    26    23    24   ar
    27    24    25   ar
    28    25    26   ar
    29    26    27   ar
    30    14    15    1
    31    15    16    1
    32     4     5    1
    33     5     6    1
    34     5     7    1
    35     5     8    1
    36    35    36   ar
    37    36    37   ar
    38    37    32   ar
    39     8     1    1
    40    16    11    1
    41    22    17   ar
    42    27    23   ar
    43    28    29    1
@<TRIPOS>MOLECULE
*****
 39 43 0 0 0
SMALL
GASTEIGER

@<TRIPOS>ATOM
      1 C         140.3541  142.1603  166.7118 C.3     1  UNL1        0.0542
      2 C         139.9327  140.7521  166.4132 C.3     1  UNL1        0.0162
      3 C         139.1171  140.4568  165.1894 C.3     1  UNL1        0.0104
      4 C         138.7230  141.5697  164.2643 C.3     1  UNL1        0.0768
      5 C         139.1444  142.9780  164.5628 C.3     1  UNL1        0.0095
      6 C         139.3016  144.4628  164.4191 C.3     1  UNL1        0.0005
      7 C         138.3834  143.1983  163.2892 C.3     1  UNL1        0.0005
      8 C         139.9600  143.2733  165.7866 C.3     1  UNL1        0.0162
      9 C         137.9074  141.2744  163.0405 C.2     1  UNL1        0.2251
     10 O         136.4194  141.4624  163.0675 O.2     1  UNL1       -0.2749
     11 N         138.5797  140.7910  161.7898 N.am    1  UNL1       -0.2795
     12 C         140.0676  140.6030  161.7628 C.3     1  UNL1        0.0942
     13 C         140.7400  140.1197  160.5121 C.3     1  UNL1        0.0344
     14 C         139.9245  139.8244  159.2883 C.3     1  UNL1        0.0924
     15 C         138.4365  140.0124  159.3153 C.3     1  UNL1        0.0344
     16 C         137.7642  140.4957  160.5660 C.3     1  UNL1        0.0942
     17 C         139.5847  139.4143  157.8861 C.ar    1  UNL1       -0.0143
     18 C         139.0737  140.4322  156.9100 C.ar    1  UNL1       -0.0038
     19 C         138.7338  140.0221  155.5077 C.ar    1  UNL1       -0.0003
     20 C         138.9050  138.5942  155.0815 C.ar    1  UNL1       -0.0000
     21 C         139.4160  137.5763  156.0576 C.ar    1  UNL1       -0.0003
     22 C         139.7558  137.9863  157.4599 C.ar    1  UNL1       -0.0038
     23 C         141.2944  139.4939  158.7744 C.ar    1  UNL1        0.2295
     24 N         142.1341  138.3233  159.1922 N.ar    1  UNL1       -0.1109
     25 N         143.4238  138.3820  158.4285 N.ar    1  UNL1       -0.1022
     26 C         143.3811  139.5888  157.5387 C.ar    1  UNL1        0.3057
     27 O         142.0650  140.2761  157.7525 O.2     1  UNL1       -0.4157
     28 N         141.1697  142.4556  167.9356 N.3     1  UNL1       -0.2962
     29 H         141.0038  143.4341  168.1709 H       1  UNL1        0.1235
     30 C         142.6570  142.2625  167.9103 C.3     1  UNL1        0.0768
     31 C         143.4347  142.2597  169.1929 C.3     1  UNL1        0.0220
     32 C         144.7854  141.6914  163.9869 C.ar    1  UNL1        0.1387
     33 C         144.1263  140.5239  164.6594 C.ar    1  UNL1        0.0366
     34 C         143.4168  140.7142  165.9673 C.ar    1  UNL1        0.0001
     35 C         143.3664  142.0721  166.6025 C.ar    1  UNL1       -0.0078
     36 C         144.0255  143.2397  165.9299 C.ar    1  UNL1        0.0001
     37 C         144.7350  143.0493  164.6221 C.ar    1  UNL1        0.0366
     38 C         144.9666  142.1554  161.4370 C.3     1  UNL1        0.2525
     39 O         145.4949  141.5011  162.6790 O.3     1  UNL1       -0.4714
@<TRIPOS>BOND
     1    38    39    1
     2    39    32    1
     3    32    33   ar
     4    33    34   ar
     5    34    35   ar
     6    35    30    1
     7    30    31    1
     8    30    28    1
     9     1    28    1
    10     1     2    1
    11     2     3    1
    12     3     4    1
    13     4     9    1
    14     9    10    2
    15     9    11   am
    16    11    12    1
    17    12    13    1
    18    13    14    1
    19    14    17    1
    20    17    18   ar
    21    18    19   ar
    22    19    20   ar
    23    20    21   ar
    24    21    22   ar
    25    14    23    1
    26    23    24   ar
    27    24    25   ar
    28    25    26   ar
    29    26    27   ar
    30    14    15    1
    31    15    16    1
    32     4     5    1
    33     5     6    1
    34     5     7    1
    35     5     8    1
    36    35    36   ar
    37    36    37   ar
    38    37    32   ar
    39     8     1    1
    40    16    11    1
    41    22    17   ar
    42    27    23   ar
    43    28    29    1
@<TRIPOS>MOLECULE
*****
 39 43 0 0 0
SMALL
GASTEIGER

@<TRIPOS>ATOM
      1 C         142.2087  139.3475  166.0287 C.3     1  UNL1        0.0542
      2 C         143.3957  140.0917  165.4927 C.3     1  UNL1        0.0162
      3 C         143.8262  139.8920  164.0698 C.3     1  UNL1        0.0104
      4 C         143.0698  138.9480  163.1828 C.3     1  UNL1        0.0768
      5 C         141.8828  138.2038  163.7187 C.3     1  UNL1        0.0095
      6 C         140.7030  137.2786  163.7663 C.3     1  UNL1        0.0005
      7 C         141.9036  137.6827  162.3123 C.3     1  UNL1        0.0005
      8 C         141.4523  138.4035  165.1417 C.3     1  UNL1        0.0162
      9 C         143.5003  138.7483  161.7598 C.2     1  UNL1        0.2251
     10 O         144.2093  137.4881  161.3606 O.2     1  UNL1       -0.2749
     11 N         143.2218  139.8087  160.7361 N.am    1  UNL1       -0.2795
     12 C         142.5129  141.0688  161.1354 C.3     1  UNL1        0.0942
     13 C         142.2344  142.1293  160.1117 C.3     1  UNL1        0.0344
     14 C         142.6649  141.9296  158.6887 C.3     1  UNL1        0.0924
     15 C         143.3739  140.6694  158.2895 C.3     1  UNL1        0.0344
     16 C         143.6523  139.6090  159.3132 C.3     1  UNL1        0.0942
     17 C         142.8744  142.2001  157.2283 C.ar    1  UNL1       -0.0143
     18 C         144.2485  142.5100  156.7126 C.ar    1  UNL1       -0.0038
     19 C         144.4580  142.7805  155.2521 C.ar    1  UNL1       -0.0003
     20 C         143.2936  142.7412  154.3074 C.ar    1  UNL1       -0.0000
     21 C         141.9196  142.4313  154.8232 C.ar    1  UNL1       -0.0003
     22 C         141.7100  142.1607  156.2836 C.ar    1  UNL1       -0.0038
     23 C         142.0287  143.2837  158.5808 C.ar    1  UNL1        0.2295
     24 N         142.7530  144.5889  158.4335 N.ar    1  UNL1       -0.1109
     25 N         141.7285  145.6822  158.3629 N.ar    1  UNL1       -0.1022
     26 C         140.3710  145.0526  158.4665 C.ar    1  UNL1        0.3057
     27 O         140.5565  143.5702  158.6012 O.2     1  UNL1       -0.4157
     28 N         141.7782  139.5472  167.4516 N.3     1  UNL1       -0.2962
     29 H         141.6696  138.6186  167.8595 H       1  UNL1        0.1235
     30 C         140.5189  140.3034  167.7551 C.3     1  UNL1        0.0768
     31 C         139.8576  140.1528  169.0929 C.3     1  UNL1        0.0220
     32 C         138.7248  143.0240  164.6519 C.ar    1  UNL1        0.1387
     33 C         138.2846  141.5928  164.7392 C.ar    1  UNL1        0.0366
     34 C         138.8826  140.6859  165.7736 C.ar    1  UNL1        0.0001
     35 C         139.9209  141.2103  166.7207 C.ar    1  UNL1       -0.0078
     36 C         140.3611  142.6415  166.6333 C.ar    1  UNL1        0.0001
     37 C         139.7631  143.5484  165.5989 C.ar    1  UNL1        0.0366
     38 C         138.9892  144.9346  162.9113 C.3     1  UNL1        0.2525
     39 O         138.1268  143.9309  163.6175 O.3     1  UNL1       -0.4714
@<TRIPOS>BOND
     1    38    39    1
     2    39    32    1
     3    32    33   ar
     4    33    34   ar
     5    34    35   ar
     6    35    30    1
     7    30    31    1
     8    30    28    1
     9     1    28    1
    10     1     2    1
    11     2     3    1
    12     3     4    1
    13     4     9    1
    14     9    10    2
    15     9    11   am
    16    11    12    1
    17    12    13    1
    18    13    14    1
    19    14    17    1
    20    17    18   ar
    21    18    19   ar
    22    19    20   ar
    23    20    21   ar
    24    21    22   ar
    25    14    23    1
    26    23    24   ar
    27    24    25   ar
    28    25    26   ar
    29    26    27   ar
    30    14    15    1
    31    15    16    1
    32     4     5    1
    33     5     6    1
    34     5     7    1
    35     5     8    1
    36    35    36   ar
    37    36    37   ar
    38    37    32   ar
    39     8     1    1
    40    16    11    1
    41    22    17   ar
    42    27    23   ar
    43    28    29    1
@<TRIPOS>MOLECULE
*****
 39 43 0 0 0
SMALL
GASTEIGER

@<TRIPOS>ATOM
      1 C         140.9434  144.6309  158.9731 C.3     1  UNL1        0.0542
      2 C         142.1195  143.7370  159.2334 C.3     1  UNL1        0.0162
      3 C         142.6673  143.6040  160.6235 C.3     1  UNL1        0.0104
      4 C         142.0391  144.3649  161.7532 C.3     1  UNL1        0.0768
      5 C         140.8630  145.2589  161.4929 C.3     1  UNL1        0.0095
      6 C         139.7419  146.2229  161.7458 C.3     1  UNL1        0.0005
      7 C         141.0215  145.4607  162.9707 C.3     1  UNL1        0.0005
      8 C         140.3152  145.3919  160.1028 C.3     1  UNL1        0.0162
      9 C         142.5869  144.2320  163.1432 C.2     1  UNL1        0.2251
     10 O         143.6342  145.1886  163.6313 O.2     1  UNL1       -0.2749
     11 N         142.0875  143.1424  164.0451 N.am    1  UNL1       -0.2795
     12 C         141.0403  142.1859  163.5570 C.3     1  UNL1        0.0942
     13 C         140.5408  141.0963  164.4589 C.3     1  UNL1        0.0344
     14 C         141.0886  140.9633  165.8489 C.3     1  UNL1        0.0924
     15 C         142.1359  141.9199  166.3371 C.3     1  UNL1        0.0344
     16 C         142.6353  143.0094  165.4351 C.3     1  UNL1        0.0942
     17 C         141.2980  140.4343  167.2368 C.ar    1  UNL1       -0.0143
     18 C         140.3385  140.7983  168.3309 C.ar    1  UNL1       -0.0038
     19 C         140.5479  140.2692  169.7188 C.ar    1  UNL1       -0.0003
     20 C         141.7167  139.3764  170.0127 C.ar    1  UNL1       -0.0000
     21 C         142.6762  139.0124  168.9187 C.ar    1  UNL1       -0.0003
     22 C         142.4669  139.5414  167.5307 C.ar    1  UNL1       -0.0038
     23 C         140.1141  139.8230  165.8428 C.ar    1  UNL1        0.2295
     24 N         140.3375  138.4757  165.2226 N.ar    1  UNL1       -0.1109
     25 N         139.1066  137.6498  165.4522 N.ar    1  UNL1       -0.1022
     26 C         138.1224  138.4868  166.2144 C.ar    1  UNL1        0.3057
     27 O         138.7451  139.8300  166.4558 O.2     1  UNL1       -0.4157
     28 N         140.3956  144.7639  157.5830 N.3     1  UNL1       -0.2962
     29 H         139.8660  145.6352  157.5574 H       1  UNL1        0.1235
     30 C         139.5016  143.6971  157.0240 C.3     1  UNL1        0.0768
     31 C         138.6579  143.9822  155.8170 C.3     1  UNL1        0.0220
     32 C         139.3505  139.6414  158.9678 C.ar    1  UNL1        0.1387
     33 C         138.5110  140.7624  159.5051 C.ar    1  UNL1        0.0366
     34 C         138.5614  142.1143  158.8572 C.ar    1  UNL1        0.0001
     35 C         139.4512  142.3452  157.6719 C.ar    1  UNL1       -0.0078
     36 C         140.2906  141.2243  157.1346 C.ar    1  UNL1        0.0001
     37 C         140.2403  139.8724  157.7826 C.ar    1  UNL1        0.0366
     38 C         139.0639  138.1739  161.0925 C.3     1  UNL1        0.2525
     39 O         139.3001  138.2895  159.6158 O.3     1  UNL1       -0.4714
@<TRIPOS>BOND
     1    38    39    1
     2    39    32    1
     3    32    33   ar
     4    33    34   ar
     5    34    35   ar
     6    35    30    1
     7    30    31    1
     8    30    28    1
     9     1    28    1
    10     1     2    1
    11     2     3    1
    12     3     4    1
    13     4     9    1
    14     9    10    2
    15     9    11   am
    16    11    12    1
    17    12    13    1
    18    13    14    1
    19    14    17    1
    20    17    18   ar
    21    18    19   ar
    22    19    20   ar
    23    20    21   ar
    24    21    22   ar
    25    14    23    1
    26    23    24   ar
    27    24    25   ar
    28    25    26   ar
    29    26    27   ar
    30    14    15    1
    31    15    16    1
    32     4     5    1
    33     5     6    1
    34     5     7    1
    35     5     8    1
    36    35    36   ar
    37    36    37   ar
    38    37    32   ar
    39     8     1    1
    40    16    11    1
    41    22    17   ar
    42    27    23   ar
    43    28    29    1
@<TRIPOS>MOLECULE
*****
 39 43 0 0 0
SMALL
GASTEIGER

@<TRIPOS>ATOM
      1 C         140.5804  142.9257  166.0621 C.3     1  UNL1        0.0542
      2 C         141.8073  143.0827  165.2135 C.3     1  UNL1        0.0162
      3 C         141.7134  143.7568  163.8768 C.3     1  UNL1        0.0104
      4 C         140.3926  144.2739  163.3887 C.3     1  UNL1        0.0768
      5 C         139.1657  144.1169  164.2373 C.3     1  UNL1        0.0095
      6 C         137.7335  144.2045  164.6745 C.3     1  UNL1        0.0005
      7 C         138.5744  144.8214  163.0525 C.3     1  UNL1        0.0005
      8 C         139.2596  143.4428  165.5740 C.3     1  UNL1        0.0162
      9 C         140.2987  144.9480  162.0520 C.2     1  UNL1        0.2251
     10 O         140.3124  146.4454  161.9646 O.2     1  UNL1       -0.2749
     11 N         140.1912  144.1247  160.8028 N.am    1  UNL1       -0.2795
     12 C         140.1776  142.6274  160.8902 C.3     1  UNL1        0.0942
     13 C         140.0701  141.8040  159.6410 C.3     1  UNL1        0.0344
     14 C         139.9762  142.4781  158.3043 C.3     1  UNL1        0.0924
     15 C         139.9898  143.9756  158.2168 C.3     1  UNL1        0.0344
     16 C         140.0973  144.7988  159.4661 C.3     1  UNL1        0.0942
     17 C         139.8640  142.6533  156.8188 C.ar    1  UNL1       -0.0143
     18 C         138.5439  143.0120  156.2034 C.ar    1  UNL1       -0.0038
     19 C         138.4318  143.1872  154.7179 C.ar    1  UNL1       -0.0003
     20 C         139.6396  143.0037  153.8478 C.ar    1  UNL1       -0.0000
     21 C         140.9598  142.6451  154.4631 C.ar    1  UNL1       -0.0003
     22 C         141.0720  142.4699  155.9486 C.ar    1  UNL1       -0.0038
     23 C         139.9236  141.0416  157.8758 C.ar    1  UNL1        0.2295
     24 N         138.6847  140.2689  157.5321 N.ar    1  UNL1       -0.1109
     25 N         139.0961  138.8753  157.1598 N.ar    1  UNL1       -0.1022
     26 C         140.5892  138.7867  157.2734 C.ar    1  UNL1        0.3057
     27 O         141.1006  140.1256  157.7159 O.2     1  UNL1       -0.4157
     28 N         140.6743  142.2516  167.3988 N.3     1  UNL1       -0.2962
     29 H         141.6483  142.3182  167.6944 H       1  UNL1        0.1235
     30 C         140.2756  140.8128  167.5429 C.3     1  UNL1        0.0768
     31 C         140.0088  140.2412  168.9037 C.3     1  UNL1        0.0220
     32 C         139.8795  138.2114  163.8924 C.ar    1  UNL1        0.1387
     33 C         141.2300  138.4514  164.4995 C.ar    1  UNL1        0.0366
     34 C         141.3620  139.3185  165.7163 C.ar    1  UNL1        0.0001
     35 C         140.1435  139.9457  166.3261 C.ar    1  UNL1       -0.0078
     36 C         138.7930  139.7057  165.7191 C.ar    1  UNL1        0.0001
     37 C         138.6610  138.8386  164.5022 C.ar    1  UNL1        0.0366
     38 C         139.5010  137.9675  161.3337 C.3     1  UNL1        0.2525
     39 O         139.7475  137.3443  162.6756 O.3     1  UNL1       -0.4714
@<TRIPOS>BOND
     1    38    39    1
     2    39    32    1
     3    32    33   ar
     4    33    34   ar
     5    34    35   ar
     6    35    30    1
     7    30    31    1
     8    30    28    1
     9     1    28    1
    10     1     2    1
    11     2     3    1
    12     3     4    1
    13     4     9    1
    14     9    10    2
    15     9    11   am
    16    11    12    1
    17    12    13    1
    18    13    14    1
    19    14    17    1
    20    17    18   ar
    21    18    19   ar
    22    19    20   ar
    23    20    21   ar
    24    21    22   ar
    25    14    23    1
    26    23    24   ar
    27    24    25   ar
    28    25    26   ar
    29    26    27   ar
    30    14    15    1
    31    15    16    1
    32     4     5    1
    33     5     6    1
    34     5     7    1
    35     5     8    1
    36    35    36   ar
    37    36    37   ar
    38    37    32   ar
    39     8     1    1
    40    16    11    1
    41    22    17   ar
    42    27    23   ar
    43    28    29    1
