@<TRIPOS>MOLECULE
*****
 32 36 0 0 0
SMALL
GASTEIGER

@<TRIPOS>ATOM
      1 N         144.1152  139.9365  163.9802 N.3     1  UNL1       -0.2700
      2 C         143.5580  139.2066  162.7940 C.3     1  UNL1        0.0897
      3 C         142.4130  138.2538  162.9698 C.3     1  UNL1        0.0897
      4 N         141.8251  138.0307  164.3316 N.3     1  UNL1       -0.2700
      5 C         142.3823  138.7605  165.5178 C.3     1  UNL1        0.0897
      6 C         143.5273  139.7134  165.3420 C.3     1  UNL1        0.0897
      7 C         145.2602  140.8894  163.8044 C.3     1  UNL1        0.0769
      8 C         145.0985  142.3332  164.1776 C.3     1  UNL1        0.0438
      9 C         141.6536  144.7115  162.5265 C.ar    1  UNL1        0.1023
     10 C         141.7616  144.4744  164.0037 C.ar    1  UNL1        0.0130
     11 C         142.9099  143.6817  164.5541 C.ar    1  UNL1       -0.0033
     12 C         143.9502  143.1259  163.6273 C.ar    1  UNL1       -0.0177
     13 C         143.8422  143.3630  162.1501 C.ar    1  UNL1        0.0334
     14 C         142.6938  144.1558  161.5997 C.ar    1  UNL1        0.1476
     15 N         139.3570  146.2971  161.4259 N.1     1  UNL1       -0.1907
     16 C         140.5052  145.5043  161.9762 C.1     1  UNL1        0.1035
     17 O         142.5858  144.3929  160.1225 O.3     1  UNL1       -0.4785
     18 C         142.9872  143.3158  159.1587 C.3     1  UNL1        0.1662
     19 C         143.7681  142.8730  157.9570 C.3     1  UNL1        0.0472
     20 C         142.9015  141.8932  158.6912 C.3     1  UNL1        0.0472
     21 C         140.6801  137.0778  164.5074 C.3     1  UNL1        0.0769
     22 C         139.3063  137.6024  164.8030 C.3     1  UNL1        0.0437
     23 C         138.9315  138.9960  164.3936 C.ar    1  UNL1       -0.0210
     24 C         138.7996  140.0723  165.4300 C.ar    1  UNL1       -0.0040
     25 C         138.4248  141.4658  165.0206 C.ar    1  UNL1        0.0059
     26 C         138.1819  141.7830  163.5748 C.ar    1  UNL1        0.0751
     27 C         138.3138  140.7067  162.5384 C.ar    1  UNL1        0.0272
     28 C         138.6886  139.3132  162.9478 C.ar    1  UNL1       -0.0047
     29 C         138.0154  141.3135  161.1995 C.3     1  UNL1        0.2356
     30 O         137.6991  142.7648  161.4084 O.3     1  UNL1       -0.4404
     31 C         137.8020  143.0550  162.8764 C.2     1  UNL1        0.3413
     32 O         137.5663  144.3838  163.5312 O.2     1  UNL1       -0.2449
@<TRIPOS>BOND
     1    15    16    3
     2    16     9    1
     3     9    10   ar
     4    10    11   ar
     5    11    12   ar
     6    12     8    1
     7     8     7    1
     8     7     1    1
     9     1     2    1
    10     2     3    1
    11     3     4    1
    12     4    21    1
    13    21    22    1
    14    22    23    1
    15    23    24   ar
    16    24    25   ar
    17    25    26   ar
    18    26    27   ar
    19    27    28   ar
    20    27    29    1
    21    29    30    1
    22    30    31    1
    23    31    32    2
    24     4     5    1
    25     5     6    1
    26    12    13   ar
    27    13    14   ar
    28    14    17    1
    29    17    18    1
    30    18    19    1
    31    19    20    1
    32    14     9   ar
    33    20    18    1
    34     6     1    1
    35    28    23   ar
    36    31    26    1
@<TRIPOS>MOLECULE
*****
 32 36 0 0 0
SMALL
GASTEIGER

@<TRIPOS>ATOM
      1 N         137.8336  142.9837  163.2200 N.3     1  UNL1       -0.2700
      2 C         137.6701  141.8442  164.1815 C.3     1  UNL1        0.0897
      3 C         137.6919  140.4307  163.6800 C.3     1  UNL1        0.0897
      4 N         137.8772  140.1568  162.2169 N.3     1  UNL1       -0.2700
      5 C         138.0408  141.2964  161.2554 C.3     1  UNL1        0.0897
      6 C         138.0190  142.7098  161.7569 C.3     1  UNL1        0.0897
      7 C         137.8118  144.3973  163.7215 C.3     1  UNL1        0.0769
      8 C         138.8935  144.8841  164.6397 C.3     1  UNL1        0.0438
      9 C         143.0710  143.2555  164.2576 C.ar    1  UNL1        0.1023
     10 C         142.6073  144.3524  163.3456 C.ar    1  UNL1        0.0130
     11 C         141.2148  144.8953  163.4729 C.ar    1  UNL1       -0.0033
     12 C         140.2859  144.3412  164.5123 C.ar    1  UNL1       -0.0177
     13 C         140.7496  143.2443  165.4243 C.ar    1  UNL1        0.0334
     14 C         142.1422  142.7014  165.2969 C.ar    1  UNL1        0.1476
     15 N         145.8560  142.1698  164.0028 N.1     1  UNL1       -0.1907
     16 C         144.4635  142.7126  164.1302 C.1     1  UNL1        0.1035
     17 O         142.6058  141.6045  166.2089 O.3     1  UNL1       -0.4785
     18 C         141.7237  141.1367  167.3284 C.3     1  UNL1        0.1662
     19 C         140.8688  140.0730  167.9509 C.3     1  UNL1        0.0472
     20 C         141.0507  141.3904  168.6447 C.3     1  UNL1        0.0472
     21 C         137.8990  138.7432  161.7154 C.3     1  UNL1        0.0769
     22 C         139.2078  138.0376  161.5179 C.3     1  UNL1        0.0437
     23 C         140.2710  138.1200  162.5729 C.ar    1  UNL1       -0.0210
     24 C         139.9695  137.6872  163.9770 C.ar    1  UNL1       -0.0040
     25 C         141.0327  137.7696  165.0319 C.ar    1  UNL1        0.0059
     26 C         142.3974  138.2848  164.6826 C.ar    1  UNL1        0.0751
     27 C         142.6990  138.7177  163.2784 C.ar    1  UNL1        0.0272
     28 C         141.6358  138.6353  162.2236 C.ar    1  UNL1       -0.0047
     29 C         144.1253  139.1796  163.2320 C.3     1  UNL1        0.2356
     30 O         144.7053  139.0323  164.6075 O.3     1  UNL1       -0.4404
     31 C         143.6374  138.4793  165.5040 C.2     1  UNL1        0.3413
     32 O         143.7838  138.1742  166.9654 O.2     1  UNL1       -0.2449
@<TRIPOS>BOND
     1    15    16    3
     2    16     9    1
     3     9    10   ar
     4    10    11   ar
     5    11    12   ar
     6    12     8    1
     7     8     7    1
     8     7     1    1
     9     1     2    1
    10     2     3    1
    11     3     4    1
    12     4    21    1
    13    21    22    1
    14    22    23    1
    15    23    24   ar
    16    24    25   ar
    17    25    26   ar
    18    26    27   ar
    19    27    28   ar
    20    27    29    1
    21    29    30    1
    22    30    31    1
    23    31    32    2
    24     4     5    1
    25     5     6    1
    26    12    13   ar
    27    13    14   ar
    28    14    17    1
    29    17    18    1
    30    18    19    1
    31    19    20    1
    32    14     9   ar
    33    20    18    1
    34     6     1    1
    35    28    23   ar
    36    31    26    1
@<TRIPOS>MOLECULE
*****
 32 36 0 0 0
SMALL
GASTEIGER

@<TRIPOS>ATOM
      1 N         139.3788  138.1288  162.6522 N.3     1  UNL1       -0.2700
      2 C         139.1086  138.2971  164.1180 C.3     1  UNL1        0.0897
      3 C         140.2471  138.3037  165.0945 C.3     1  UNL1        0.0897
      4 N         141.6558  138.1419  164.6053 N.3     1  UNL1       -0.2700
      5 C         141.9260  137.9736  163.1395 C.3     1  UNL1        0.0897
      6 C         140.7875  137.9670  162.1630 C.3     1  UNL1        0.0897
      7 C         138.2403  138.1222  161.6755 C.3     1  UNL1        0.0769
      8 C         137.5515  139.4058  161.3179 C.3     1  UNL1        0.0438
      9 C         139.9799  143.0374  160.2389 C.ar    1  UNL1        0.1023
     10 C         140.2160  141.7386  159.5266 C.ar    1  UNL1        0.0130
     11 C         139.4066  140.5281  159.8863 C.ar    1  UNL1       -0.0033
     12 C         138.3609  140.6163  160.9582 C.ar    1  UNL1       -0.0177
     13 C         138.1248  141.9152  161.6705 C.ar    1  UNL1        0.0334
     14 C         138.9344  143.1257  161.3108 C.ar    1  UNL1        0.1476
     15 N         141.5989  145.4585  159.5194 N.1     1  UNL1       -0.1907
     16 C         140.7894  144.2480  159.8792 C.1     1  UNL1        0.1035
     17 O         138.6983  144.4246  162.0230 O.3     1  UNL1       -0.4785
     18 C         138.4581  144.4352  163.5036 C.3     1  UNL1        0.1662
     19 C         137.6466  144.0093  164.6911 C.3     1  UNL1        0.0472
     20 C         138.8536  144.8793  164.8806 C.3     1  UNL1        0.0472
     21 C         142.7943  138.1485  165.5820 C.3     1  UNL1        0.0769
     22 C         143.2421  139.4382  166.2032 C.3     1  UNL1        0.0437
     23 C         143.0475  140.7317  165.4689 C.ar    1  UNL1       -0.0210
     24 C         141.8806  141.6140  165.8003 C.ar    1  UNL1       -0.0040
     25 C         141.6860  142.9074  165.0660 C.ar    1  UNL1        0.0059
     26 C         142.6584  143.3186  164.0004 C.ar    1  UNL1        0.0751
     27 C         143.8253  142.4363  163.6691 C.ar    1  UNL1        0.0272
     28 C         144.0199  141.1429  164.4033 C.ar    1  UNL1       -0.0047
     29 C         144.6130  143.0997  162.5785 C.3     1  UNL1        0.2356
     30 O         143.9329  144.3920  162.2357 O.3     1  UNL1       -0.4404
     31 C         142.7248  144.5273  163.1145 C.2     1  UNL1        0.3413
     32 O         141.7538  145.6705  163.1086 O.2     1  UNL1       -0.2449
@<TRIPOS>BOND
     1    15    16    3
     2    16     9    1
     3     9    10   ar
     4    10    11   ar
     5    11    12   ar
     6    12     8    1
     7     8     7    1
     8     7     1    1
     9     1     2    1
    10     2     3    1
    11     3     4    1
    12     4    21    1
    13    21    22    1
    14    22    23    1
    15    23    24   ar
    16    24    25   ar
    17    25    26   ar
    18    26    27   ar
    19    27    28   ar
    20    27    29    1
    21    29    30    1
    22    30    31    1
    23    31    32    2
    24     4     5    1
    25     5     6    1
    26    12    13   ar
    27    13    14   ar
    28    14    17    1
    29    17    18    1
    30    18    19    1
    31    19    20    1
    32    14     9   ar
    33    20    18    1
    34     6     1    1
    35    28    23   ar
    36    31    26    1
@<TRIPOS>MOLECULE
*****
 32 36 0 0 0
SMALL
GASTEIGER

@<TRIPOS>ATOM
      1 N         140.5885  144.6219  162.5560 N.3     1  UNL1       -0.2700
      2 C         140.4087  143.8397  161.2888 C.3     1  UNL1        0.0897
      3 C         141.5978  143.2260  160.6111 C.3     1  UNL1        0.0897
      4 N         142.9668  143.3945  161.2006 N.3     1  UNL1       -0.2700
      5 C         143.1466  144.1767  162.4678 C.3     1  UNL1        0.0897
      6 C         141.9575  144.7904  163.1455 C.3     1  UNL1        0.0897
      7 C         139.3993  145.2356  163.2337 C.3     1  UNL1        0.0769
      8 C         138.9367  144.7083  164.5596 C.3     1  UNL1        0.0438
      9 C         138.6407  140.2693  165.2361 C.ar    1  UNL1        0.1023
     10 C         137.7554  140.9344  164.2242 C.ar    1  UNL1        0.0130
     11 C         137.8541  142.4141  163.9987 C.ar    1  UNL1       -0.0033
     12 C         138.8381  143.2287  164.7851 C.ar    1  UNL1       -0.0177
     13 C         139.7234  142.5635  165.7969 C.ar    1  UNL1        0.0334
     14 C         139.6247  141.0838  166.0224 C.ar    1  UNL1        0.1476
     15 N         138.4433  137.3099  165.6870 N.1     1  UNL1       -0.1907
     16 C         138.5420  138.7896  165.4615 C.1     1  UNL1        0.1035
     17 O         140.5100  140.4186  167.0343 O.3     1  UNL1       -0.4785
     18 C         140.1284  140.4262  168.4849 C.3     1  UNL1        0.1662
     19 C         139.0832  140.3041  169.5539 C.3     1  UNL1        0.0472
     20 C         140.5126  140.5614  169.9285 C.3     1  UNL1        0.0472
     21 C         144.1559  142.7807  160.5229 C.3     1  UNL1        0.0769
     22 C         144.3956  141.3033  160.6214 C.3     1  UNL1        0.0437
     23 C         144.1536  140.5891  161.9181 C.ar    1  UNL1       -0.0210
     24 C         145.0838  140.8004  163.0757 C.ar    1  UNL1       -0.0040
     25 C         144.8417  140.0862  164.3723 C.ar    1  UNL1        0.0059
     26 C         143.6696  139.1605  164.5113 C.ar    1  UNL1        0.0751
     27 C         142.7395  138.9492  163.3536 C.ar    1  UNL1        0.0272
     28 C         142.9815  139.6634  162.0570 C.ar    1  UNL1       -0.0047
     29 C         141.6756  137.9834  163.7842 C.3     1  UNL1        0.2356
     30 O         141.9482  137.5979  165.2080 O.3     1  UNL1       -0.4404
     31 C         143.1806  138.3254  165.6574 C.2     1  UNL1        0.3413
     32 O         143.8129  138.2339  167.0145 O.2     1  UNL1       -0.2449
@<TRIPOS>BOND
     1    15    16    3
     2    16     9    1
     3     9    10   ar
     4    10    11   ar
     5    11    12   ar
     6    12     8    1
     7     8     7    1
     8     7     1    1
     9     1     2    1
    10     2     3    1
    11     3     4    1
    12     4    21    1
    13    21    22    1
    14    22    23    1
    15    23    24   ar
    16    24    25   ar
    17    25    26   ar
    18    26    27   ar
    19    27    28   ar
    20    27    29    1
    21    29    30    1
    22    30    31    1
    23    31    32    2
    24     4     5    1
    25     5     6    1
    26    12    13   ar
    27    13    14   ar
    28    14    17    1
    29    17    18    1
    30    18    19    1
    31    19    20    1
    32    14     9   ar
    33    20    18    1
    34     6     1    1
    35    28    23   ar
    36    31    26    1
@<TRIPOS>MOLECULE
*****
 32 36 0 0 0
SMALL
GASTEIGER

@<TRIPOS>ATOM
      1 N         141.8642  137.9019  164.3367 N.3     1  UNL1       -0.2700
      2 C         142.4233  138.2239  162.9826 C.3     1  UNL1        0.0897
      3 C         143.6494  139.0795  162.8616 C.3     1  UNL1        0.0897
      4 N         144.3163  139.6131  164.0947 N.3     1  UNL1       -0.2700
      5 C         143.7571  139.2912  165.4488 C.3     1  UNL1        0.0897
      6 C         142.5311  138.4356  165.5698 C.3     1  UNL1        0.0897
      7 C         140.6381  137.0462  164.4578 C.3     1  UNL1        0.0769
      8 C         139.3291  137.6630  164.8530 C.3     1  UNL1        0.0438
      9 C         138.3021  141.8273  163.4913 C.ar    1  UNL1        0.1023
     10 C         137.9016  140.6457  162.6585 C.ar    1  UNL1        0.0130
     11 C         138.2440  139.2577  163.1124 C.ar    1  UNL1       -0.0033
     12 C         138.9868  139.0511  164.3991 C.ar    1  UNL1       -0.0177
     13 C         139.3872  140.2326  165.2319 C.ar    1  UNL1        0.0334
     14 C         139.0448  141.6208  164.7780 C.ar    1  UNL1        0.1476
     15 N         137.6174  144.6034  162.5835 N.1     1  UNL1       -0.1907
     16 C         137.9597  143.2154  163.0374 C.1     1  UNL1        0.1035
     17 O         139.4453  142.8023  165.6109 O.3     1  UNL1       -0.4785
     18 C         140.4234  142.6305  166.7351 C.3     1  UNL1        0.1662
     19 C         140.7374  142.6705  168.2013 C.3     1  UNL1        0.0472
     20 C         141.8034  142.2929  167.2161 C.3     1  UNL1        0.0472
     21 C         145.5424  140.4688  163.9736 C.3     1  UNL1        0.0769
     22 C         145.4366  141.9570  164.1280 C.3     1  UNL1        0.0437
     23 C         144.4027  142.7198  163.3538 C.ar    1  UNL1       -0.0210
     24 C         144.3538  142.6109  161.8586 C.ar    1  UNL1       -0.0040
     25 C         143.3199  143.3736  161.0845 C.ar    1  UNL1        0.0059
     26 C         142.3350  144.2454  161.8056 C.ar    1  UNL1        0.0751
     27 C         142.3839  144.3544  163.3008 C.ar    1  UNL1        0.0272
     28 C         143.4178  143.5916  164.0749 C.ar    1  UNL1       -0.0047
     29 C         141.2906  145.2855  163.7337 C.3     1  UNL1        0.2356
     30 O         140.5659  145.7521  162.5060 O.3     1  UNL1       -0.4404
     31 C         141.2114  145.1092  161.3143 C.2     1  UNL1        0.3413
     32 O         140.8047  145.2972  159.8828 O.2     1  UNL1       -0.2449
@<TRIPOS>BOND
     1    15    16    3
     2    16     9    1
     3     9    10   ar
     4    10    11   ar
     5    11    12   ar
     6    12     8    1
     7     8     7    1
     8     7     1    1
     9     1     2    1
    10     2     3    1
    11     3     4    1
    12     4    21    1
    13    21    22    1
    14    22    23    1
    15    23    24   ar
    16    24    25   ar
    17    25    26   ar
    18    26    27   ar
    19    27    28   ar
    20    27    29    1
    21    29    30    1
    22    30    31    1
    23    31    32    2
    24     4     5    1
    25     5     6    1
    26    12    13   ar
    27    13    14   ar
    28    14    17    1
    29    17    18    1
    30    18    19    1
    31    19    20    1
    32    14     9   ar
    33    20    18    1
    34     6     1    1
    35    28    23   ar
    36    31    26    1
@<TRIPOS>MOLECULE
*****
 32 36 0 0 0
SMALL
GASTEIGER

@<TRIPOS>ATOM
      1 N         141.4525  138.3432  164.6810 N.3     1  UNL1       -0.2700
      2 C         141.9060  139.3677  165.6783 C.3     1  UNL1        0.0897
      3 C         143.1472  140.1689  165.4188 C.3     1  UNL1        0.0897
      4 N         143.9349  139.9457  164.1620 N.3     1  UNL1       -0.2700
      5 C         143.4814  138.9212  163.1646 C.3     1  UNL1        0.0897
      6 C         142.2403  138.1200  163.4241 C.3     1  UNL1        0.0897
      7 C         140.2113  137.5418  164.9404 C.3     1  UNL1        0.0769
      8 C         138.8667  138.1076  164.5914 C.3     1  UNL1        0.0438
      9 C         138.4507  140.9438  161.1226 C.ar    1  UNL1        0.1023
     10 C         138.6614  139.4798  160.8732 C.ar    1  UNL1        0.0130
     11 C         138.8001  138.5344  162.0295 C.ar    1  UNL1       -0.0033
     12 C         138.7280  139.0530  163.4352 C.ar    1  UNL1       -0.0177
     13 C         138.5172  140.5171  163.6845 C.ar    1  UNL1        0.0334
     14 C         138.3786  141.4625  162.5281 C.ar    1  UNL1        0.1476
     15 N         138.1733  142.8345  158.8099 N.1     1  UNL1       -0.1907
     16 C         138.3120  141.8892  159.9662 C.1     1  UNL1        0.1035
     17 O         138.1678  142.9265  162.7775 O.3     1  UNL1       -0.4785
     18 C         138.7083  143.5603  164.0250 C.3     1  UNL1        0.1662
     19 C         138.8128  144.7440  164.9404 C.3     1  UNL1        0.0472
     20 C         139.5399  143.4742  165.2704 C.3     1  UNL1        0.0472
     21 C         145.1761  140.7471  163.9025 C.3     1  UNL1        0.0769
     22 C         145.1712  142.2305  164.1246 C.3     1  UNL1        0.0437
     23 C         144.0688  143.0710  163.5516 C.ar    1  UNL1       -0.0210
     24 C         143.5468  144.2487  164.3200 C.ar    1  UNL1       -0.0040
     25 C         142.4445  145.0891  163.7470 C.ar    1  UNL1        0.0059
     26 C         141.8641  144.7519  162.4056 C.ar    1  UNL1        0.0751
     27 C         142.3861  143.5742  161.6372 C.ar    1  UNL1        0.0272
     28 C         143.4884  142.7338  162.2102 C.ar    1  UNL1       -0.0047
     29 C         141.6234  143.4867  160.3485 C.3     1  UNL1        0.2356
     30 O         140.6300  144.6102  160.3205 O.3     1  UNL1       -0.4404
     31 C         140.7787  145.3922  161.5919 C.2     1  UNL1        0.3413
     32 O         139.9821  146.6021  161.9811 O.2     1  UNL1       -0.2449
@<TRIPOS>BOND
     1    15    16    3
     2    16     9    1
     3     9    10   ar
     4    10    11   ar
     5    11    12   ar
     6    12     8    1
     7     8     7    1
     8     7     1    1
     9     1     2    1
    10     2     3    1
    11     3     4    1
    12     4    21    1
    13    21    22    1
    14    22    23    1
    15    23    24   ar
    16    24    25   ar
    17    25    26   ar
    18    26    27   ar
    19    27    28   ar
    20    27    29    1
    21    29    30    1
    22    30    31    1
    23    31    32    2
    24     4     5    1
    25     5     6    1
    26    12    13   ar
    27    13    14   ar
    28    14    17    1
    29    17    18    1
    30    18    19    1
    31    19    20    1
    32    14     9   ar
    33    20    18    1
    34     6     1    1
    35    28    23   ar
    36    31    26    1
@<TRIPOS>MOLECULE
*****
 32 36 0 0 0
SMALL
GASTEIGER

@<TRIPOS>ATOM
      1 N         141.9845  144.5287  162.4657 N.3     1  UNL1       -0.2700
      2 C         142.2947  143.4229  161.5009 C.3     1  UNL1        0.0897
      3 C         143.5082  142.5658  161.7075 C.3     1  UNL1        0.0897
      4 N         144.4115  142.8145  162.8789 N.3     1  UNL1       -0.2700
      5 C         144.1013  143.9204  163.8437 C.3     1  UNL1        0.0897
      6 C         142.8878  144.7774  163.6371 C.3     1  UNL1        0.0897
      7 C         140.7709  145.3859  162.2591 C.3     1  UNL1        0.0769
      8 C         139.5074  145.0908  163.0116 C.3     1  UNL1        0.0438
      9 C         139.3248  141.5714  165.8098 C.ar    1  UNL1        0.1023
     10 C         138.8802  141.4207  164.3852 C.ar    1  UNL1        0.0130
     11 C         138.9410  142.5938  163.4525 C.ar    1  UNL1       -0.0033
     12 C         139.4465  143.9177  163.9443 C.ar    1  UNL1       -0.0177
     13 C         139.8912  144.0684  165.3690 C.ar    1  UNL1        0.0334
     14 C         139.8303  142.8951  166.3017 C.ar    1  UNL1        0.1476
     15 N         139.2031  139.2250  167.6753 N.1     1  UNL1       -0.1907
     16 C         139.2640  140.3981  166.7426 C.1     1  UNL1        0.1035
     17 O         140.2750  143.0458  167.7264 O.3     1  UNL1       -0.4785
     18 C         141.6181  142.5305  168.1513 C.3     1  UNL1        0.1662
     19 C         142.4821  141.8319  169.1590 C.3     1  UNL1        0.0472
     20 C         143.0805  142.3366  167.8796 C.3     1  UNL1        0.0472
     21 C         145.6250  141.9573  163.0855 C.3     1  UNL1        0.0769
     22 C         145.5478  140.7488  163.9705 C.3     1  UNL1        0.0437
     23 C         144.2740  139.9609  164.0546 C.ar    1  UNL1       -0.0210
     24 C         143.5323  139.8710  165.3552 C.ar    1  UNL1       -0.0040
     25 C         142.2586  139.0832  165.4393 C.ar    1  UNL1        0.0059
     26 C         141.7267  138.3853  164.2227 C.ar    1  UNL1        0.0751
     27 C         142.4685  138.4752  162.9221 C.ar    1  UNL1        0.0272
     28 C         143.7422  139.2630  162.8381 C.ar    1  UNL1       -0.0047
     29 C         141.7063  137.6872  161.8984 C.3     1  UNL1        0.2356
     30 O         140.4934  137.1102  162.5663 O.3     1  UNL1       -0.4404
     31 C         140.5060  137.5417  164.0029 C.2     1  UNL1        0.3413
     32 O         139.4784  137.1911  165.0378 O.2     1  UNL1       -0.2449
@<TRIPOS>BOND
     1    15    16    3
     2    16     9    1
     3     9    10   ar
     4    10    11   ar
     5    11    12   ar
     6    12     8    1
     7     8     7    1
     8     7     1    1
     9     1     2    1
    10     2     3    1
    11     3     4    1
    12     4    21    1
    13    21    22    1
    14    22    23    1
    15    23    24   ar
    16    24    25   ar
    17    25    26   ar
    18    26    27   ar
    19    27    28   ar
    20    27    29    1
    21    29    30    1
    22    30    31    1
    23    31    32    2
    24     4     5    1
    25     5     6    1
    26    12    13   ar
    27    13    14   ar
    28    14    17    1
    29    17    18    1
    30    18    19    1
    31    19    20    1
    32    14     9   ar
    33    20    18    1
    34     6     1    1
    35    28    23   ar
    36    31    26    1
@<TRIPOS>MOLECULE
*****
 32 36 0 0 0
SMALL
GASTEIGER

@<TRIPOS>ATOM
      1 N         139.4300  142.5446  160.0227 N.3     1  UNL1       -0.2700
      2 C         139.9270  141.2109  159.5491 C.3     1  UNL1        0.0897
      3 C         139.3893  139.9505  160.1590 C.3     1  UNL1        0.0897
      4 N         138.3546  140.0237  161.2426 N.3     1  UNL1       -0.2700
      5 C         137.8576  141.3573  161.7161 C.3     1  UNL1        0.0897
      6 C         138.3953  142.6178  161.1062 C.3     1  UNL1        0.0897
      7 C         139.9677  143.8051  159.4127 C.3     1  UNL1        0.0769
      8 C         140.3253  144.9690  160.2887 C.3     1  UNL1        0.0438
      9 C         143.2214  144.4198  163.6888 C.ar    1  UNL1        0.1023
     10 C         141.9983  145.2679  163.8750 C.ar    1  UNL1        0.0130
     11 C         141.0329  145.4509  162.7417 C.ar    1  UNL1       -0.0033
     12 C         141.2906  144.7859  161.4221 C.ar    1  UNL1       -0.0177
     13 C         142.5138  143.9379  161.2358 C.ar    1  UNL1        0.0334
     14 C         143.4792  143.7548  162.3692 C.ar    1  UNL1        0.1476
     15 N         145.1522  144.0538  165.9555 N.1     1  UNL1       -0.1907
     16 C         144.1869  144.2368  164.8222 C.1     1  UNL1        0.1035
     17 O         144.7024  142.9068  162.1830 O.3     1  UNL1       -0.4785
     18 C         144.7347  141.5081  162.7241 C.3     1  UNL1        0.1662
     19 C         145.1244  140.5411  163.8025 C.3     1  UNL1        0.0472
     20 C         144.4011  140.0525  162.5827 C.3     1  UNL1        0.0472
     21 C         137.8168  138.7631  161.8525 C.3     1  UNL1        0.0769
     22 C         138.7550  137.7705  162.4726 C.3     1  UNL1        0.0437
     23 C         139.5970  138.1677  163.6488 C.ar    1  UNL1       -0.0210
     24 C         140.9816  137.6115  163.8019 C.ar    1  UNL1       -0.0040
     25 C         141.8236  138.0087  164.9780 C.ar    1  UNL1        0.0059
     26 C         141.2809  138.9620  166.0011 C.ar    1  UNL1        0.0751
     27 C         139.8963  139.5182  165.8480 C.ar    1  UNL1        0.0272
     28 C         139.0543  139.1210  164.6719 C.ar    1  UNL1       -0.0047
     29 C         139.6328  140.4316  167.0083 C.3     1  UNL1        0.2356
     30 O         140.8545  140.4400  167.8785 O.3     1  UNL1       -0.4404
     31 C         141.8732  139.5317  167.2560 C.2     1  UNL1        0.3413
     32 O         143.2434  139.2437  167.7939 O.2     1  UNL1       -0.2449
@<TRIPOS>BOND
     1    15    16    3
     2    16     9    1
     3     9    10   ar
     4    10    11   ar
     5    11    12   ar
     6    12     8    1
     7     8     7    1
     8     7     1    1
     9     1     2    1
    10     2     3    1
    11     3     4    1
    12     4    21    1
    13    21    22    1
    14    22    23    1
    15    23    24   ar
    16    24    25   ar
    17    25    26   ar
    18    26    27   ar
    19    27    28   ar
    20    27    29    1
    21    29    30    1
    22    30    31    1
    23    31    32    2
    24     4     5    1
    25     5     6    1
    26    12    13   ar
    27    13    14   ar
    28    14    17    1
    29    17    18    1
    30    18    19    1
    31    19    20    1
    32    14     9   ar
    33    20    18    1
    34     6     1    1
    35    28    23   ar
    36    31    26    1
@<TRIPOS>MOLECULE
*****
 32 36 0 0 0
SMALL
GASTEIGER

@<TRIPOS>ATOM
      1 N         142.7504  139.4781  161.5023 N.3     1  UNL1       -0.2700
      2 C         143.7221  138.9240  162.5017 C.3     1  UNL1        0.0897
      3 C         144.4268  139.8452  163.4528 C.3     1  UNL1        0.0897
      4 N         144.1598  141.3205  163.4046 N.3     1  UNL1       -0.2700
      5 C         143.1881  141.8745  162.4052 C.3     1  UNL1        0.0897
      6 C         142.4834  140.9533  161.4541 C.3     1  UNL1        0.0897
      7 C         142.0456  138.5568  160.5511 C.3     1  UNL1        0.0769
      8 C         140.6043  138.2071  160.7750 C.3     1  UNL1        0.0438
      9 C         138.8339  138.4955  164.9020 C.ar    1  UNL1        0.1023
     10 C         139.7748  137.3767  164.5661 C.ar    1  UNL1        0.0130
     11 C         140.3649  137.2805  163.1904 C.ar    1  UNL1       -0.0033
     12 C         140.0142  138.3032  162.1506 C.ar    1  UNL1       -0.0177
     13 C         139.0733  139.4221  162.4866 C.ar    1  UNL1        0.0334
     14 C         138.4832  139.5182  163.8624 C.ar    1  UNL1        0.1476
     15 N         137.6537  138.6878  167.6534 N.1     1  UNL1       -0.1907
     16 C         138.2438  138.5917  166.2778 C.1     1  UNL1        0.1035
     17 O         137.5423  140.6371  164.1983 O.3     1  UNL1       -0.4785
     18 C         138.0008  142.0611  164.0886 C.3     1  UNL1        0.1662
     19 C         138.6901  143.1483  163.3185 C.3     1  UNL1        0.0472
     20 C         138.1058  143.4404  164.6687 C.3     1  UNL1        0.0472
     21 C         144.8645  142.2417  164.3558 C.3     1  UNL1        0.0769
     22 C         144.0758  143.2173  165.1780 C.3     1  UNL1        0.0437
     23 C         143.1316  142.7191  166.2318 C.ar    1  UNL1       -0.0210
     24 C         141.6892  142.4824  165.8951 C.ar    1  UNL1       -0.0040
     25 C         140.7451  141.9842  166.9488 C.ar    1  UNL1        0.0059
     26 C         141.2434  141.7226  168.3392 C.ar    1  UNL1        0.0751
     27 C         142.6858  141.9593  168.6759 C.ar    1  UNL1        0.0272
     28 C         143.6299  142.4575  167.6222 C.ar    1  UNL1       -0.0047
     29 C         142.8866  141.6152  170.1220 C.3     1  UNL1        0.2356
     30 O         141.5684  141.1659  170.6791 O.3     1  UNL1       -0.4404
     31 C         140.5527  141.2323  169.5773 C.2     1  UNL1        0.3413
     32 O         139.1014  140.8716  169.6930 O.2     1  UNL1       -0.2449
@<TRIPOS>BOND
     1    15    16    3
     2    16     9    1
     3     9    10   ar
     4    10    11   ar
     5    11    12   ar
     6    12     8    1
     7     8     7    1
     8     7     1    1
     9     1     2    1
    10     2     3    1
    11     3     4    1
    12     4    21    1
    13    21    22    1
    14    22    23    1
    15    23    24   ar
    16    24    25   ar
    17    25    26   ar
    18    26    27   ar
    19    27    28   ar
    20    27    29    1
    21    29    30    1
    22    30    31    1
    23    31    32    2
    24     4     5    1
    25     5     6    1
    26    12    13   ar
    27    13    14   ar
    28    14    17    1
    29    17    18    1
    30    18    19    1
    31    19    20    1
    32    14     9   ar
    33    20    18    1
    34     6     1    1
    35    28    23   ar
    36    31    26    1
