@<TRIPOS>MOLECULE
*****
 29 32 0 0 0
SMALL
GASTEIGER

@<TRIPOS>ATOM
      1 C         140.5543  139.9811  164.4992 C.3     1  UNL1        0.1910
      2 O         140.4412  141.0016  163.4057 O.3     1  UNL1       -0.3500
      3 C         140.7263  142.4456  163.6951 C.3     1  UNL1        0.1145
      4 C         141.0113  143.8895  163.9844 C.3     1  UNL1        0.0463
      5 C         140.8983  144.9100  162.8910 C.3     1  UNL1        0.0746
      6 N         140.5002  144.4866  161.5081 N.3     1  UNL1       -0.2722
      7 C         140.2152  143.0427  161.2187 C.3     1  UNL1        0.0746
      8 C         140.3282  142.0222  162.3122 C.3     1  UNL1        0.0463
      9 C         141.1243  142.8690  165.0779 C.3     1  UNL1        0.1254
     10 N         141.2374  141.8484  166.1714 N.am    1  UNL1       -0.2543
     11 C         140.9524  140.4045  165.8820 C.2     1  UNL1        0.2566
     12 O         141.0654  139.3839  166.9756 O.2     1  UNL1       -0.2719
     13 C         141.6355  142.2718  167.5543 C.ar    1  UNL1        0.0540
     14 C         143.0390  142.0460  168.0329 C.ar    1  UNL1        0.0149
     15 C         143.4370  142.4695  169.4158 C.ar    1  UNL1        0.0013
     16 C         142.4316  143.1187  170.3199 C.ar    1  UNL1        0.0001
     17 C         141.0280  143.3445  169.8413 C.ar    1  UNL1        0.0013
     18 C         140.6299  142.9211  168.4585 C.ar    1  UNL1        0.0149
     19 C         141.3876  137.6142  163.8257 C.3     1  UNL1        0.0030
     20 C         140.2692  138.5370  164.2099 C.3     1  UNL1        0.0362
     21 C         138.8659  138.0159  164.3047 C.3     1  UNL1        0.0030
     22 C         140.3871  145.5072  160.4146 C.3     1  UNL1        0.0768
     23 C         141.0315  145.2550  159.0838 C.3     1  UNL1        0.0437
     24 C         140.1959  145.2319  157.8382 C.ar    1  UNL1       -0.0208
     25 C         139.6008  143.9415  157.3581 C.ar    1  UNL1       -0.0042
     26 C         138.7653  143.9185  156.1126 C.ar    1  UNL1       -0.0003
     27 C         138.5248  145.1859  155.3473 C.ar    1  UNL1       -0.0000
     28 C         139.1198  146.4764  155.8274 C.ar    1  UNL1       -0.0003
     29 C         139.9553  146.4994  157.0729 C.ar    1  UNL1       -0.0042
@<TRIPOS>BOND
     1    19    20    1
     2    20    21    1
     3    20     1    1
     4     1     2    1
     5     2     3    1
     6     3     4    1
     7     4     5    1
     8     5     6    1
     9     6    22    1
    10    22    23    1
    11    23    24    1
    12    24    25   ar
    13    25    26   ar
    14    26    27   ar
    15    27    28   ar
    16    28    29   ar
    17     6     7    1
    18     7     8    1
    19     3     9    1
    20     9    10    1
    21    10    13    1
    22    13    14   ar
    23    14    15   ar
    24    15    16   ar
    25    16    17   ar
    26    17    18   ar
    27    10    11   am
    28    11    12    2
    29    11     1    1
    30     8     3    1
    31    18    13   ar
    32    29    24   ar
@<TRIPOS>MOLECULE
*****
 29 32 0 0 0
SMALL
GASTEIGER

@<TRIPOS>ATOM
      1 C         139.2851  139.8878  165.9198 C.3     1  UNL1        0.1910
      2 O         139.2706  140.6865  164.6502 O.3     1  UNL1       -0.3500
      3 C         140.0007  141.9950  164.5788 C.3     1  UNL1        0.1145
      4 C         140.7308  143.3033  164.5075 C.3     1  UNL1        0.0463
      5 C         140.7162  144.1020  163.2380 C.3     1  UNL1        0.0746
      6 N         139.9717  143.5924  162.0397 N.3     1  UNL1       -0.2722
      7 C         139.2416  142.2840  162.1110 C.3     1  UNL1        0.0746
      8 C         139.2561  141.4853  163.3806 C.3     1  UNL1        0.0463
      9 C         140.7453  142.5046  165.7771 C.3     1  UNL1        0.1254
     10 N         140.7598  141.7059  167.0467 N.am    1  UNL1       -0.2543
     11 C         140.0297  140.3975  167.1180 C.2     1  UNL1        0.2566
     12 O         140.0442  139.5987  168.3876 O.2     1  UNL1       -0.2719
     13 C         141.5044  142.2155  168.2450 C.ar    1  UNL1        0.0540
     14 C         142.9292  141.8059  168.4726 C.ar    1  UNL1        0.0149
     15 C         143.6738  142.3156  169.6709 C.ar    1  UNL1        0.0013
     16 C         142.9935  143.2349  170.6415 C.ar    1  UNL1        0.0001
     17 C         141.5686  143.6445  170.4139 C.ar    1  UNL1        0.0013
     18 C         140.8240  143.1348  169.2156 C.ar    1  UNL1        0.0149
     19 C         138.8992  137.4754  165.0357 C.3     1  UNL1        0.0030
     20 C         138.5550  138.5794  165.9911 C.3     1  UNL1        0.0362
     21 C         137.4808  138.3749  167.0178 C.3     1  UNL1        0.0030
     22 C         139.9572  144.3911  160.7701 C.3     1  UNL1        0.0768
     23 C         141.2076  144.5221  159.9521 C.3     1  UNL1        0.0437
     24 C         142.0901  143.3287  159.7348 C.ar    1  UNL1       -0.0208
     25 C         143.3425  143.1648  160.5438 C.ar    1  UNL1       -0.0042
     26 C         144.2249  141.9714  160.3265 C.ar    1  UNL1       -0.0003
     27 C         143.8550  140.9421  159.3000 C.ar    1  UNL1       -0.0000
     28 C         142.6026  141.1061  158.4909 C.ar    1  UNL1       -0.0003
     29 C         141.7202  142.2994  158.7083 C.ar    1  UNL1       -0.0042
@<TRIPOS>BOND
     1    19    20    1
     2    20    21    1
     3    20     1    1
     4     1     2    1
     5     2     3    1
     6     3     4    1
     7     4     5    1
     8     5     6    1
     9     6    22    1
    10    22    23    1
    11    23    24    1
    12    24    25   ar
    13    25    26   ar
    14    26    27   ar
    15    27    28   ar
    16    28    29   ar
    17     6     7    1
    18     7     8    1
    19     3     9    1
    20     9    10    1
    21    10    13    1
    22    13    14   ar
    23    14    15   ar
    24    15    16   ar
    25    16    17   ar
    26    17    18   ar
    27    10    11   am
    28    11    12    2
    29    11     1    1
    30     8     3    1
    31    18    13   ar
    32    29    24   ar
@<TRIPOS>MOLECULE
*****
 29 32 0 0 0
SMALL
GASTEIGER

@<TRIPOS>ATOM
      1 C         143.4518  140.5565  162.8966 C.3     1  UNL1        0.1910
      2 O         143.2648  139.7427  161.6506 O.3     1  UNL1       -0.3500
      3 C         141.9745  139.8218  160.8897 C.3     1  UNL1        0.1145
      4 C         140.6843  139.9009  160.1288 C.3     1  UNL1        0.0463
      5 C         140.4973  139.0871  158.8828 C.3     1  UNL1        0.0746
      6 N         141.6005  138.1941  158.3976 N.3     1  UNL1       -0.2722
      7 C         142.8908  138.1149  159.1585 C.3     1  UNL1        0.0746
      8 C         143.0778  138.9288  160.4045 C.3     1  UNL1        0.0463
      9 C         140.8713  140.7148  161.3748 C.3     1  UNL1        0.1254
     10 N         141.0583  141.5287  162.6209 N.am    1  UNL1       -0.2543
     11 C         142.3486  141.4495  163.3818 C.2     1  UNL1        0.2566
     12 O         142.5356  142.2634  164.6279 O.2     1  UNL1       -0.2719
     13 C         139.9551  142.4217  163.1061 C.ar    1  UNL1        0.0540
     14 C         139.8953  143.8516  162.6570 C.ar    1  UNL1        0.0149
     15 C         138.7921  144.7446  163.1422 C.ar    1  UNL1        0.0013
     16 C         137.7486  144.2077  164.0764 C.ar    1  UNL1        0.0001
     17 C         137.8083  142.7777  164.5255 C.ar    1  UNL1        0.0013
     18 C         138.9116  141.8847  164.0404 C.ar    1  UNL1        0.0149
     19 C         145.0231  139.2949  164.5366 C.3     1  UNL1        0.0030
     20 C         144.7421  140.4774  163.6575 C.3     1  UNL1        0.0362
     21 C         145.7514  141.5808  163.5394 C.3     1  UNL1        0.0030
     22 C         141.4135  137.3802  157.1515 C.3     1  UNL1        0.0768
     23 C         142.5745  136.6378  156.5593 C.3     1  UNL1        0.0437
     24 C         142.5081  135.1480  156.3970 C.ar    1  UNL1       -0.0208
     25 C         141.5976  134.5455  155.3685 C.ar    1  UNL1       -0.0042
     26 C         141.5312  133.0558  155.2062 C.ar    1  UNL1       -0.0003
     27 C         142.3753  132.1686  156.0724 C.ar    1  UNL1       -0.0000
     28 C         143.2858  132.7711  157.1010 C.ar    1  UNL1       -0.0003
     29 C         143.3522  134.2608  157.2633 C.ar    1  UNL1       -0.0042
@<TRIPOS>BOND
     1    19    20    1
     2    20    21    1
     3    20     1    1
     4     1     2    1
     5     2     3    1
     6     3     4    1
     7     4     5    1
     8     5     6    1
     9     6    22    1
    10    22    23    1
    11    23    24    1
    12    24    25   ar
    13    25    26   ar
    14    26    27   ar
    15    27    28   ar
    16    28    29   ar
    17     6     7    1
    18     7     8    1
    19     3     9    1
    20     9    10    1
    21    10    13    1
    22    13    14   ar
    23    14    15   ar
    24    15    16   ar
    25    16    17   ar
    26    17    18   ar
    27    10    11   am
    28    11    12    2
    29    11     1    1
    30     8     3    1
    31    18    13   ar
    32    29    24   ar
@<TRIPOS>MOLECULE
*****
 29 32 0 0 0
SMALL
GASTEIGER

@<TRIPOS>ATOM
      1 C         143.9400  140.4982  157.6830 C.3     1  UNL1        0.1910
      2 O         143.9522  140.4624  159.1825 O.3     1  UNL1       -0.3500
      3 C         143.4388  139.2541  159.9081 C.3     1  UNL1        0.1145
      4 C         142.9254  138.0458  160.6336 C.3     1  UNL1        0.0463
      5 C         142.9376  138.0099  162.1331 C.3     1  UNL1        0.0746
      6 N         143.4632  139.1824  162.9071 N.3     1  UNL1       -0.2722
      7 C         143.9766  140.3907  162.1815 C.3     1  UNL1        0.0746
      8 C         143.9644  140.4265  160.6821 C.3     1  UNL1        0.0463
      9 C         142.9132  138.0816  159.1341 C.3     1  UNL1        0.1254
     10 N         142.9010  138.1174  157.6345 N.am    1  UNL1       -0.2543
     11 C         143.4144  139.3257  156.9090 C.2     1  UNL1        0.2566
     12 O         143.4022  139.3616  155.4094 O.2     1  UNL1       -0.2719
     13 C         142.3754  136.9450  156.8605 C.ar    1  UNL1        0.0540
     14 C         143.1395  135.6543  156.8434 C.ar    1  UNL1        0.0149
     15 C         142.6139  134.4818  156.0694 C.ar    1  UNL1        0.0013
     16 C         141.3243  134.6000  155.3126 C.ar    1  UNL1        0.0001
     17 C         140.5602  135.8907  155.3297 C.ar    1  UNL1        0.0013
     18 C         141.0858  137.0632  156.1036 C.ar    1  UNL1        0.0149
     19 C         145.8820  141.7578  156.5031 C.3     1  UNL1        0.0030
     20 C         144.4534  141.7066  156.9574 C.3     1  UNL1        0.0362
     21 C         143.5382  142.8636  156.6861 C.3     1  UNL1        0.0030
     22 C         143.4754  139.1466  164.4066 C.3     1  UNL1        0.0768
     23 C         142.6199  138.1566  165.1401 C.3     1  UNL1        0.0437
     24 C         141.1795  138.4703  165.4175 C.ar    1  UNL1       -0.0208
     25 C         140.0969  137.6642  164.7633 C.ar    1  UNL1       -0.0042
     26 C         138.6566  137.9780  165.0407 C.ar    1  UNL1       -0.0003
     27 C         138.2989  139.0979  165.9723 C.ar    1  UNL1       -0.0000
     28 C         139.3815  139.9040  166.6265 C.ar    1  UNL1       -0.0003
     29 C         140.8218  139.5903  166.3491 C.ar    1  UNL1       -0.0042
@<TRIPOS>BOND
     1    19    20    1
     2    20    21    1
     3    20     1    1
     4     1     2    1
     5     2     3    1
     6     3     4    1
     7     4     5    1
     8     5     6    1
     9     6    22    1
    10    22    23    1
    11    23    24    1
    12    24    25   ar
    13    25    26   ar
    14    26    27   ar
    15    27    28   ar
    16    28    29   ar
    17     6     7    1
    18     7     8    1
    19     3     9    1
    20     9    10    1
    21    10    13    1
    22    13    14   ar
    23    14    15   ar
    24    15    16   ar
    25    16    17   ar
    26    17    18   ar
    27    10    11   am
    28    11    12    2
    29    11     1    1
    30     8     3    1
    31    18    13   ar
    32    29    24   ar
@<TRIPOS>MOLECULE
*****
 29 32 0 0 0
SMALL
GASTEIGER

@<TRIPOS>ATOM
      1 C         141.2439  138.7583  162.3936 C.3     1  UNL1        0.1910
      2 O         141.6356  138.4346  160.9823 O.3     1  UNL1       -0.3500
      3 C         142.4399  139.4168  160.1831 C.3     1  UNL1        0.1145
      4 C         143.2441  140.3989  159.3840 C.3     1  UNL1        0.0463
      5 C         143.6358  140.0752  157.9727 C.3     1  UNL1        0.0746
      6 N         143.2232  138.7695  157.3605 N.3     1  UNL1       -0.2722
      7 C         142.4190  137.7873  158.1596 C.3     1  UNL1        0.0746
      8 C         142.0273  138.1110  159.5709 C.3     1  UNL1        0.0463
      9 C         142.8524  140.7226  160.7952 C.3     1  UNL1        0.1254
     10 N         142.4607  141.0462  162.2066 N.am    1  UNL1       -0.2543
     11 C         141.6565  140.0641  163.0057 C.2     1  UNL1        0.2566
     12 O         141.2647  140.3877  164.4171 O.2     1  UNL1       -0.2719
     13 C         142.8732  142.3520  162.8188 C.ar    1  UNL1        0.0540
     14 C         143.9430  142.3829  163.8697 C.ar    1  UNL1        0.0149
     15 C         144.3555  143.6886  164.4819 C.ar    1  UNL1        0.0013
     16 C         143.6982  144.9635  164.0431 C.ar    1  UNL1        0.0001
     17 C         142.6284  144.9327  162.9922 C.ar    1  UNL1        0.0013
     18 C         142.2158  143.6269  162.3800 C.ar    1  UNL1        0.0149
     19 C         141.1123  136.9183  164.2232 C.3     1  UNL1        0.0030
     20 C         140.4397  137.7761  163.1928 C.3     1  UNL1        0.0362
     21 C         138.9629  137.6518  162.9615 C.3     1  UNL1        0.0030
     22 C         143.6150  138.4458  155.9491 C.3     1  UNL1        0.0768
     23 C         144.3347  137.1654  155.6454 C.3     1  UNL1        0.0437
     24 C         143.5602  135.8924  155.4726 C.ar    1  UNL1       -0.0208
     25 C         143.7266  134.7736  156.4578 C.ar    1  UNL1       -0.0042
     26 C         142.9521  133.5008  156.2849 C.ar    1  UNL1       -0.0003
     27 C         142.0112  133.3467  155.1269 C.ar    1  UNL1       -0.0000
     28 C         141.8448  134.4654  154.1418 C.ar    1  UNL1       -0.0003
     29 C         142.6193  135.7383  154.3146 C.ar    1  UNL1       -0.0042
@<TRIPOS>BOND
     1    19    20    1
     2    20    21    1
     3    20     1    1
     4     1     2    1
     5     2     3    1
     6     3     4    1
     7     4     5    1
     8     5     6    1
     9     6    22    1
    10    22    23    1
    11    23    24    1
    12    24    25   ar
    13    25    26   ar
    14    26    27   ar
    15    27    28   ar
    16    28    29   ar
    17     6     7    1
    18     7     8    1
    19     3     9    1
    20     9    10    1
    21    10    13    1
    22    13    14   ar
    23    14    15   ar
    24    15    16   ar
    25    16    17   ar
    26    17    18   ar
    27    10    11   am
    28    11    12    2
    29    11     1    1
    30     8     3    1
    31    18    13   ar
    32    29    24   ar
@<TRIPOS>MOLECULE
*****
 29 32 0 0 0
SMALL
GASTEIGER

@<TRIPOS>ATOM
      1 C         143.3978  141.4739  162.7240 C.3     1  UNL1        0.1910
      2 O         143.4719  140.9491  161.3208 O.3     1  UNL1       -0.3500
      3 C         142.4769  139.9315  160.8471 C.3     1  UNL1        0.1145
      4 C         141.4819  138.9139  160.3734 C.3     1  UNL1        0.0463
      5 C         141.5560  138.3891  158.9702 C.3     1  UNL1        0.0746
      6 N         142.6251  138.8819  158.0406 N.3     1  UNL1       -0.2722
      7 C         143.6201  139.8995  158.5143 C.3     1  UNL1        0.0746
      8 C         143.5460  140.4243  159.9175 C.3     1  UNL1        0.0463
      9 C         141.4077  139.4387  161.7766 C.3     1  UNL1        0.1254
     10 N         141.3336  139.9635  163.1799 N.am    1  UNL1       -0.2543
     11 C         142.3286  140.9811  163.6536 C.2     1  UNL1        0.2566
     12 O         142.2545  141.5059  165.0568 O.2     1  UNL1       -0.2719
     13 C         140.2645  139.4707  164.1095 C.ar    1  UNL1        0.0540
     14 C         139.2140  140.4158  164.6126 C.ar    1  UNL1        0.0149
     15 C         138.1449  139.9230  165.5421 C.ar    1  UNL1        0.0013
     16 C         138.1262  138.4850  165.9686 C.ar    1  UNL1        0.0001
     17 C         139.1767  137.5398  165.4654 C.ar    1  UNL1        0.0013
     18 C         140.2459  138.0326  164.5359 C.ar    1  UNL1        0.0149
     19 C         144.1472  143.9510  162.9533 C.3     1  UNL1        0.0030
     20 C         144.3928  142.4916  163.1977 C.3     1  UNL1        0.0362
     21 C         145.6334  142.0498  163.9158 C.3     1  UNL1        0.0030
     22 C         142.6992  138.3571  156.6373 C.3     1  UNL1        0.0768
     23 C         141.6714  137.3812  156.1463 C.3     1  UNL1        0.0437
     24 C         141.9668  135.9106  156.1595 C.ar    1  UNL1       -0.0208
     25 C         141.2090  134.9852  155.2543 C.ar    1  UNL1       -0.0042
     26 C         141.5045  133.5147  155.2675 C.ar    1  UNL1       -0.0003
     27 C         142.5577  132.9695  156.1860 C.ar    1  UNL1       -0.0000
     28 C         143.3154  133.8949  157.0912 C.ar    1  UNL1       -0.0003
     29 C         143.0200  135.3654  157.0780 C.ar    1  UNL1       -0.0042
@<TRIPOS>BOND
     1    19    20    1
     2    20    21    1
     3    20     1    1
     4     1     2    1
     5     2     3    1
     6     3     4    1
     7     4     5    1
     8     5     6    1
     9     6    22    1
    10    22    23    1
    11    23    24    1
    12    24    25   ar
    13    25    26   ar
    14    26    27   ar
    15    27    28   ar
    16    28    29   ar
    17     6     7    1
    18     7     8    1
    19     3     9    1
    20     9    10    1
    21    10    13    1
    22    13    14   ar
    23    14    15   ar
    24    15    16   ar
    25    16    17   ar
    26    17    18   ar
    27    10    11   am
    28    11    12    2
    29    11     1    1
    30     8     3    1
    31    18    13   ar
    32    29    24   ar
@<TRIPOS>MOLECULE
*****
 29 32 0 0 0
SMALL
GASTEIGER

@<TRIPOS>ATOM
      1 C         140.1158  142.5794  164.4094 C.3     1  UNL1        0.1910
      2 O         140.5629  141.6527  163.3181 O.3     1  UNL1       -0.3500
      3 C         141.4924  140.5178  163.6317 C.3     1  UNL1        0.1145
      4 C         142.4218  139.3830  163.9454 C.3     1  UNL1        0.0463
      5 C         142.8689  138.4563  162.8541 C.3     1  UNL1        0.0746
      6 N         142.3866  138.6643  161.4490 N.3     1  UNL1       -0.2722
      7 C         141.4572  139.7990  161.1353 C.3     1  UNL1        0.0746
      8 C         141.0101  140.7258  162.2267 C.3     1  UNL1        0.0463
      9 C         141.9746  140.3098  165.0368 C.3     1  UNL1        0.1254
     10 N         141.5274  141.2366  166.1282 N.am    1  UNL1       -0.2543
     11 C         140.5980  142.3714  165.8145 C.2     1  UNL1        0.2566
     12 O         140.1508  143.2983  166.9059 O.2     1  UNL1       -0.2719
     13 C         142.0097  141.0286  167.5332 C.ar    1  UNL1        0.0540
     14 C         142.9510  142.0159  168.1570 C.ar    1  UNL1        0.0149
     15 C         143.4332  141.8079  169.5620 C.ar    1  UNL1        0.0013
     16 C         142.9742  140.6126  170.3433 C.ar    1  UNL1        0.0001
     17 C         142.0328  139.6252  169.7196 C.ar    1  UNL1        0.0013
     18 C         141.5506  139.8332  168.3145 C.ar    1  UNL1        0.0149
     19 C         139.7263  144.9870  163.5139 C.3     1  UNL1        0.0030
     20 C         139.1863  143.7143  164.0958 C.3     1  UNL1        0.0362
     21 C         137.7170  143.5764  164.3640 C.3     1  UNL1        0.0030
     22 C         142.8338  137.7374  160.3576 C.3     1  UNL1        0.0768
     23 C         142.9746  138.2452  158.9533 C.3     1  UNL1        0.0437
     24 C         142.1401  137.6551  157.8552 C.ar    1  UNL1       -0.0208
     25 C         142.6725  136.5151  157.0387 C.ar    1  UNL1       -0.0042
     26 C         141.8380  135.9251  155.9407 C.ar    1  UNL1       -0.0003
     27 C         140.4712  136.4752  155.6593 C.ar    1  UNL1       -0.0000
     28 C         139.9388  137.6153  156.4758 C.ar    1  UNL1       -0.0003
     29 C         140.7733  138.2053  157.5738 C.ar    1  UNL1       -0.0042
@<TRIPOS>BOND
     1    19    20    1
     2    20    21    1
     3    20     1    1
     4     1     2    1
     5     2     3    1
     6     3     4    1
     7     4     5    1
     8     5     6    1
     9     6    22    1
    10    22    23    1
    11    23    24    1
    12    24    25   ar
    13    25    26   ar
    14    26    27   ar
    15    27    28   ar
    16    28    29   ar
    17     6     7    1
    18     7     8    1
    19     3     9    1
    20     9    10    1
    21    10    13    1
    22    13    14   ar
    23    14    15   ar
    24    15    16   ar
    25    16    17   ar
    26    17    18   ar
    27    10    11   am
    28    11    12    2
    29    11     1    1
    30     8     3    1
    31    18    13   ar
    32    29    24   ar
@<TRIPOS>MOLECULE
*****
 29 32 0 0 0
SMALL
GASTEIGER

@<TRIPOS>ATOM
      1 C         139.5494  141.5242  159.7239 C.3     1  UNL1        0.1910
      2 O         139.2436  142.3741  158.5264 O.3     1  UNL1       -0.3500
      3 C         139.8204  143.7547  158.4195 C.3     1  UNL1        0.1145
      4 C         140.3972  145.1352  158.3127 C.3     1  UNL1        0.0463
      5 C         140.0914  145.9852  157.1152 C.3     1  UNL1        0.0746
      6 N         139.2088  145.4546  156.0245 N.3     1  UNL1       -0.2722
      7 C         138.6320  144.0741  156.1314 C.3     1  UNL1        0.0746
      8 C         138.9378  143.2242  157.3289 C.3     1  UNL1        0.0463
      9 C         140.7030  144.2853  159.5102 C.3     1  UNL1        0.1254
     10 N         141.0087  143.4353  160.7077 N.am    1  UNL1       -0.2543
     11 C         140.4319  142.0548  160.8146 C.2     1  UNL1        0.2566
     12 O         140.7377  141.2048  162.0121 O.2     1  UNL1       -0.2719
     13 C         141.8913  143.9658  161.7984 C.ar    1  UNL1        0.0540
     14 C         143.3461  143.6019  161.8297 C.ar    1  UNL1        0.0149
     15 C         144.2287  144.1324  162.9204 C.ar    1  UNL1        0.0013
     16 C         143.6565  145.0270  163.9797 C.ar    1  UNL1        0.0001
     17 C         142.2016  145.3910  163.9485 C.ar    1  UNL1        0.0013
     18 C         141.3190  144.8605  162.8578 C.ar    1  UNL1        0.0149
     19 C         139.6890  138.9813  159.2096 C.3     1  UNL1        0.0030
     20 C         138.9726  140.1436  159.8308 C.3     1  UNL1        0.0362
     21 C         137.6794  139.9254  160.5588 C.3     1  UNL1        0.0030
     22 C         138.9030  146.3046  154.8270 C.3     1  UNL1        0.0768
     23 C         139.8697  147.3670  154.3947 C.3     1  UNL1        0.0437
     24 C         139.4956  148.8148  154.5136 C.ar    1  UNL1       -0.0208
     25 C         138.7804  149.3066  155.7369 C.ar    1  UNL1       -0.0042
     26 C         138.4063  150.7543  155.8557 C.ar    1  UNL1       -0.0003
     27 C         138.7475  151.7102  154.7512 C.ar    1  UNL1       -0.0000
     28 C         139.4627  151.2183  153.5279 C.ar    1  UNL1       -0.0003
     29 C         139.8368  149.7706  153.4091 C.ar    1  UNL1       -0.0042
@<TRIPOS>BOND
     1    19    20    1
     2    20    21    1
     3    20     1    1
     4     1     2    1
     5     2     3    1
     6     3     4    1
     7     4     5    1
     8     5     6    1
     9     6    22    1
    10    22    23    1
    11    23    24    1
    12    24    25   ar
    13    25    26   ar
    14    26    27   ar
    15    27    28   ar
    16    28    29   ar
    17     6     7    1
    18     7     8    1
    19     3     9    1
    20     9    10    1
    21    10    13    1
    22    13    14   ar
    23    14    15   ar
    24    15    16   ar
    25    16    17   ar
    26    17    18   ar
    27    10    11   am
    28    11    12    2
    29    11     1    1
    30     8     3    1
    31    18    13   ar
    32    29    24   ar
@<TRIPOS>MOLECULE
*****
 29 32 0 0 0
SMALL
GASTEIGER

@<TRIPOS>ATOM
      1 C         143.4527  142.7064  163.3437 C.3     1  UNL1        0.1910
      2 O         143.9313  142.6019  161.9260 O.3     1  UNL1       -0.3500
      3 C         143.4964  141.4490  161.0705 C.3     1  UNL1        0.1145
      4 C         143.0615  140.2961  160.2151 C.3     1  UNL1        0.0463
      5 C         143.5402  140.1917  158.7975 C.3     1  UNL1        0.0746
      6 N         144.4538  141.2400  158.2351 N.3     1  UNL1       -0.2722
      7 C         144.8887  142.3929  159.0905 C.3     1  UNL1        0.0746
      8 C         144.4100  142.4974  160.5082 C.3     1  UNL1        0.0463
      9 C         142.5828  140.4006  161.6328 C.3     1  UNL1        0.1254
     10 N         142.1041  140.5052  163.0506 N.am    1  UNL1       -0.2543
     11 C         142.5390  141.6580  163.9060 C.2     1  UNL1        0.2566
     12 O         142.0603  141.7625  165.3237 O.2     1  UNL1       -0.2719
     13 C         141.1905  139.4568  163.6129 C.ar    1  UNL1        0.0540
     14 C         139.7191  139.7258  163.7245 C.ar    1  UNL1        0.0149
     15 C         138.8054  138.6775  164.2868 C.ar    1  UNL1        0.0013
     16 C         139.3632  137.3600  164.7376 C.ar    1  UNL1        0.0001
     17 C         140.8347  137.0909  164.6260 C.ar    1  UNL1        0.0013
     18 C         141.7484  138.1393  164.0637 C.ar    1  UNL1        0.0149
     19 C         144.8291  143.6303  165.3442 C.3     1  UNL1        0.0030
     20 C         143.8876  143.8593  164.1991 C.3     1  UNL1        0.0362
     21 C         143.3810  145.2411  163.9095 C.3     1  UNL1        0.0030
     22 C         144.9325  141.1355  156.8174 C.3     1  UNL1        0.0768
     23 C         145.5984  142.3091  156.1621 C.3     1  UNL1        0.0437
     24 C         146.8565  142.1113  155.3695 C.ar    1  UNL1       -0.0208
     25 C         148.1806  142.0379  156.0703 C.ar    1  UNL1       -0.0042
     26 C         149.4386  141.8402  155.2777 C.ar    1  UNL1       -0.0003
     27 C         149.3725  141.7159  153.7843 C.ar    1  UNL1       -0.0000
     28 C         148.0483  141.7894  153.0835 C.ar    1  UNL1       -0.0003
     29 C         146.7903  141.9871  153.8761 C.ar    1  UNL1       -0.0042
@<TRIPOS>BOND
     1    19    20    1
     2    20    21    1
     3    20     1    1
     4     1     2    1
     5     2     3    1
     6     3     4    1
     7     4     5    1
     8     5     6    1
     9     6    22    1
    10    22    23    1
    11    23    24    1
    12    24    25   ar
    13    25    26   ar
    14    26    27   ar
    15    27    28   ar
    16    28    29   ar
    17     6     7    1
    18     7     8    1
    19     3     9    1
    20     9    10    1
    21    10    13    1
    22    13    14   ar
    23    14    15   ar
    24    15    16   ar
    25    16    17   ar
    26    17    18   ar
    27    10    11   am
    28    11    12    2
    29    11     1    1
    30     8     3    1
    31    18    13   ar
    32    29    24   ar
