@<TRIPOS>MOLECULE
*****
 28 31 0 0 0
SMALL
GASTEIGER

@<TRIPOS>ATOM
      1 C         140.7796  139.4190  165.1479 C.ar    1  UNL1        0.0191
      2 C         140.3665  140.2813  163.9922 C.ar    1  UNL1        0.0023
      3 C         140.3689  139.7217  162.6005 C.ar    1  UNL1        0.0367
      4 C         140.7843  138.2998  162.3646 C.ar    1  UNL1        0.1385
      5 C         141.1974  137.4375  163.5203 C.ar    1  UNL1        0.0367
      6 C         141.1950  137.9971  164.9120 C.ar    1  UNL1        0.0023
      7 C         138.4434  138.9179  166.9621 C.3     1  UNL1        0.0300
      8 C         139.6092  139.7280  167.4468 C.3     1  UNL1        0.1779
      9 C         140.7773  139.9785  166.5397 C.3     1  UNL1        0.2102
     10 O         141.9430  140.7885  167.0243 O.3     1  UNL1       -0.4717
     11 C         141.9407  141.3481  168.4161 C.ar    1  UNL1        0.1559
     12 C         143.1064  142.1581  168.9008 C.ar    1  UNL1        0.0382
     13 C         143.1040  142.7176  170.2925 C.ar    1  UNL1        0.0032
     14 C         141.9359  142.4671  171.1996 C.ar    1  UNL1        0.0015
     15 C         140.7702  141.6570  170.7149 C.ar    1  UNL1        0.0214
     16 C         140.7726  141.0975  169.3232 C.ar    1  UNL1        0.1395
     17 S         139.6068  140.2875  168.8385 S.O2    1  UNL1        0.0137
     18 O         139.1438  140.6038  170.2298 O.2     1  UNL1       -0.1685
     19 O         138.2803  139.5872  168.8371 O.2     1  UNL1       -0.1685
     20 O         140.7866  137.7403  160.9728 O.3     1  UNL1       -0.4754
     21 C         141.8586  138.1435  160.0042 C.3     1  UNL1        0.2068
     22 C         143.2887  138.2071  160.4520 C.3     1  UNL1        0.0646
     23 C         143.9221  139.5331  160.7531 C.3     1  UNL1        0.0759
     24 N         144.0185  140.0136  162.1707 N.3     1  UNL1       -0.2726
     25 C         144.4180  139.1867  163.3567 C.3     1  UNL1        0.0721
     26 C         144.3788  140.0675  164.5703 C.3     1  UNL1        0.0188
     27 C         143.9550  141.4388  164.1342 C.3     1  UNL1        0.0188
     28 C         143.7324  141.4054  162.6512 C.3     1  UNL1        0.0721
@<TRIPOS>BOND
     1     8     7    1
     2     8     9    1
     3     9     1    1
     4     1     2   ar
     5     2     3   ar
     6     3     4   ar
     7     4    20    1
     8    20    21    1
     9    21    22    1
    10    22    23    1
    11    23    24    1
    12    24    25    1
    13    25    26    1
    14    26    27    1
    15    27    28    1
    16     4     5   ar
    17     5     6   ar
    18     9    10    1
    19    10    11    1
    20    11    12   ar
    21    12    13   ar
    22    13    14   ar
    23    14    15   ar
    24    15    16   ar
    25    16    17    1
    26    17    18    2
    27    17    19    2
    28    17     8    1
    29     6     1   ar
    30    16    11   ar
    31    28    24    1
@<TRIPOS>MOLECULE
*****
 28 31 0 0 0
SMALL
GASTEIGER

@<TRIPOS>ATOM
      1 C         139.7135  141.8638  164.3180 C.ar    1  UNL1        0.0191
      2 C         140.3673  141.2279  163.1272 C.ar    1  UNL1        0.0023
      3 C         139.9074  141.5781  161.7431 C.ar    1  UNL1        0.0367
      4 C         138.7937  142.5643  161.5499 C.ar    1  UNL1        0.1385
      5 C         138.1400  143.2001  162.7407 C.ar    1  UNL1        0.0367
      6 C         138.5999  142.8499  164.1248 C.ar    1  UNL1        0.0023
      7 C         138.1716  139.8765  165.9530 C.3     1  UNL1        0.0300
      8 C         139.4025  140.5199  166.5197 C.3     1  UNL1        0.1779
      9 C         140.1734  141.5136  165.7022 C.3     1  UNL1        0.2102
     10 O         141.4042  142.1570  166.2689 O.3     1  UNL1       -0.4717
     11 C         141.8641  141.8068  167.6531 C.ar    1  UNL1        0.1559
     12 C         143.0949  142.4502  168.2197 C.ar    1  UNL1        0.0382
     13 C         143.5548  142.1000  169.6038 C.ar    1  UNL1        0.0032
     14 C         142.7838  141.1063  170.4213 C.ar    1  UNL1        0.0015
     15 C         141.5530  140.4629  169.8547 C.ar    1  UNL1        0.0214
     16 C         141.0932  140.8131  168.4706 C.ar    1  UNL1        0.1395
     17 S         139.8623  140.1697  167.9039 S.O2    1  UNL1        0.0137
     18 O         139.8992  139.5173  169.2541 O.2     1  UNL1       -0.1685
     19 O         138.6443  139.2997  167.8061 O.2     1  UNL1       -0.1685
     20 O         138.3338  142.9145  160.1657 O.3     1  UNL1       -0.4754
     21 C         139.3269  143.3712  159.1385 C.3     1  UNL1        0.2068
     22 C         140.1048  144.6349  159.3574 C.3     1  UNL1        0.0646
     23 C         141.5057  144.5706  159.8898 C.3     1  UNL1        0.0759
     24 N         141.7486  144.6160  161.3693 N.3     1  UNL1       -0.2726
     25 C         142.8363  143.8928  162.1069 C.3     1  UNL1        0.0721
     26 C         142.7063  144.2224  163.5645 C.3     1  UNL1        0.0188
     27 C         141.5382  145.1493  163.7277 C.3     1  UNL1        0.0188
     28 C         140.9463  145.3925  162.3710 C.3     1  UNL1        0.0721
@<TRIPOS>BOND
     1     8     7    1
     2     8     9    1
     3     9     1    1
     4     1     2   ar
     5     2     3   ar
     6     3     4   ar
     7     4    20    1
     8    20    21    1
     9    21    22    1
    10    22    23    1
    11    23    24    1
    12    24    25    1
    13    25    26    1
    14    26    27    1
    15    27    28    1
    16     4     5   ar
    17     5     6   ar
    18     9    10    1
    19    10    11    1
    20    11    12   ar
    21    12    13   ar
    22    13    14   ar
    23    14    15   ar
    24    15    16   ar
    25    16    17    1
    26    17    18    2
    27    17    19    2
    28    17     8    1
    29     6     1   ar
    30    16    11   ar
    31    28    24    1
@<TRIPOS>MOLECULE
*****
 28 31 0 0 0
SMALL
GASTEIGER

@<TRIPOS>ATOM
      1 C         141.9674  142.0020  164.5849 C.ar    1  UNL1        0.0191
      2 C         143.0037  142.9941  164.1471 C.ar    1  UNL1        0.0023
      3 C         143.0445  143.4557  162.7205 C.ar    1  UNL1        0.0367
      4 C         142.0492  142.9251  161.7317 C.ar    1  UNL1        0.1385
      5 C         141.0129  141.9330  162.1695 C.ar    1  UNL1        0.0367
      6 C         140.9720  141.4714  163.5961 C.ar    1  UNL1        0.0023
      7 C         143.3733  139.4755  165.3848 C.3     1  UNL1        0.0300
      8 C         142.6294  140.2771  166.4116 C.3     1  UNL1        0.1779
      9 C         141.9265  141.5404  166.0116 C.3     1  UNL1        0.2102
     10 O         141.1826  142.3421  167.0382 O.3     1  UNL1       -0.4717
     11 C         141.1417  141.8804  168.4649 C.ar    1  UNL1        0.1559
     12 C         140.3978  142.6821  169.4915 C.ar    1  UNL1        0.0382
     13 C         140.3569  142.2205  170.9181 C.ar    1  UNL1        0.0032
     14 C         141.0599  140.9572  171.3180 C.ar    1  UNL1        0.0015
     15 C         141.8038  140.1556  170.2914 C.ar    1  UNL1        0.0214
     16 C         141.8447  140.6172  168.8648 C.ar    1  UNL1        0.1395
     17 S         142.5885  139.8155  167.8381 S.O2    1  UNL1        0.0137
     18 O         142.8358  138.9740  169.0550 O.2     1  UNL1       -0.1685
     19 O         143.4183  138.7216  167.2341 O.2     1  UNL1       -0.1685
     20 O         142.0901  143.3867  160.3050 O.3     1  UNL1       -0.4754
     21 C         141.5125  144.7196  159.9311 C.3     1  UNL1        0.2068
     22 C         140.1523  145.1129  160.4260 C.3     1  UNL1        0.0646
     23 C         140.0065  145.8036  161.7496 C.3     1  UNL1        0.0759
     24 N         139.3632  145.0897  162.9013 N.3     1  UNL1       -0.2726
     25 C         138.0897  144.2989  162.8480 C.3     1  UNL1        0.0721
     26 C         137.8198  143.7617  164.2223 C.3     1  UNL1        0.0188
     27 C         138.9265  144.2206  165.1249 C.3     1  UNL1        0.0188
     28 C         139.8803  145.0413  164.3085 C.3     1  UNL1        0.0721
@<TRIPOS>BOND
     1     8     7    1
     2     8     9    1
     3     9     1    1
     4     1     2   ar
     5     2     3   ar
     6     3     4   ar
     7     4    20    1
     8    20    21    1
     9    21    22    1
    10    22    23    1
    11    23    24    1
    12    24    25    1
    13    25    26    1
    14    26    27    1
    15    27    28    1
    16     4     5   ar
    17     5     6   ar
    18     9    10    1
    19    10    11    1
    20    11    12   ar
    21    12    13   ar
    22    13    14   ar
    23    14    15   ar
    24    15    16   ar
    25    16    17    1
    26    17    18    2
    27    17    19    2
    28    17     8    1
    29     6     1   ar
    30    16    11   ar
    31    28    24    1
@<TRIPOS>MOLECULE
*****
 28 31 0 0 0
SMALL
GASTEIGER

@<TRIPOS>ATOM
      1 C         142.9215  140.4314  164.7519 C.ar    1  UNL1        0.0191
      2 C         141.9082  140.0055  163.7312 C.ar    1  UNL1        0.0023
      3 C         142.3048  139.8727  162.2907 C.ar    1  UNL1        0.0367
      4 C         143.7147  140.1658  161.8709 C.ar    1  UNL1        0.1385
      5 C         144.7280  140.5917  162.8915 C.ar    1  UNL1        0.0367
      6 C         144.3314  140.7245  164.3320 C.ar    1  UNL1        0.0023
      7 C         143.6704  138.2920  166.7171 C.3     1  UNL1        0.0300
      8 C         142.8994  139.4945  167.1751 C.3     1  UNL1        0.1779
      9 C         142.5250  140.5642  166.1925 C.3     1  UNL1        0.2102
     10 O         141.7541  141.7666  166.6504 O.3     1  UNL1       -0.4717
     11 C         141.3575  141.8994  168.0909 C.ar    1  UNL1        0.1559
     12 C         140.5866  143.1018  168.5488 C.ar    1  UNL1        0.0382
     13 C         140.1901  143.2346  169.9894 C.ar    1  UNL1        0.0032
     14 C         140.5645  142.1649  170.9720 C.ar    1  UNL1        0.0015
     15 C         141.3354  140.9624  170.5141 C.ar    1  UNL1        0.0214
     16 C         141.7319  140.8297  169.0735 C.ar    1  UNL1        0.1395
     17 S         142.5029  139.6272  168.6156 S.O2    1  UNL1        0.0137
     18 O         142.3565  139.3032  170.0729 O.2     1  UNL1       -0.1685
     19 O         143.2231  138.3122  168.6638 O.2     1  UNL1       -0.1685
     20 O         144.1112  140.0331  160.4303 O.3     1  UNL1       -0.4754
     21 C         143.7836  141.1275  159.4583 C.3     1  UNL1        0.2068
     22 C         144.0261  142.5598  159.8319 C.3     1  UNL1        0.0646
     23 C         142.9194  143.3765  160.4305 C.3     1  UNL1        0.0759
     24 N         142.9524  143.7307  161.8877 N.3     1  UNL1       -0.2726
     25 C         144.1490  144.2182  162.6496 C.3     1  UNL1        0.0721
     26 C         143.7308  144.4485  164.0716 C.3     1  UNL1        0.0188
     27 C         142.2757  144.1033  164.1885 C.3     1  UNL1        0.0188
     28 C         141.7946  143.6598  162.8387 C.3     1  UNL1        0.0721
@<TRIPOS>BOND
     1     8     7    1
     2     8     9    1
     3     9     1    1
     4     1     2   ar
     5     2     3   ar
     6     3     4   ar
     7     4    20    1
     8    20    21    1
     9    21    22    1
    10    22    23    1
    11    23    24    1
    12    24    25    1
    13    25    26    1
    14    26    27    1
    15    27    28    1
    16     4     5   ar
    17     5     6   ar
    18     9    10    1
    19    10    11    1
    20    11    12   ar
    21    12    13   ar
    22    13    14   ar
    23    14    15   ar
    24    15    16   ar
    25    16    17    1
    26    17    18    2
    27    17    19    2
    28    17     8    1
    29     6     1   ar
    30    16    11   ar
    31    28    24    1
@<TRIPOS>MOLECULE
*****
 28 31 0 0 0
SMALL
GASTEIGER

@<TRIPOS>ATOM
      1 C         141.4984  140.3141  164.5377 C.ar    1  UNL1        0.0191
      2 C         142.3811  139.1768  164.1165 C.ar    1  UNL1        0.0023
      3 C         142.7191  138.9865  162.6676 C.ar    1  UNL1        0.0367
      4 C         142.1743  139.9335  161.6397 C.ar    1  UNL1        0.1385
      5 C         141.2917  141.0708  162.0609 C.ar    1  UNL1        0.0367
      6 C         140.9537  141.2611  163.5098 C.ar    1  UNL1        0.0023
      7 C         139.0937  138.9548  165.7080 C.3     1  UNL1        0.0300
      8 C         139.9581  139.8247  166.5719 C.3     1  UNL1        0.1779
      9 C         141.1604  140.5044  165.9867 C.3     1  UNL1        0.2102
     10 O         142.0247  141.3743  166.8505 O.3     1  UNL1       -0.4717
     11 C         141.6867  141.5646  168.2995 C.ar    1  UNL1        0.1559
     12 C         142.5511  142.4345  169.1632 C.ar    1  UNL1        0.0382
     13 C         142.2130  142.6248  170.6122 C.ar    1  UNL1        0.0032
     14 C         141.0107  141.9452  171.1974 C.ar    1  UNL1        0.0015
     15 C         140.1464  141.0753  170.3336 C.ar    1  UNL1        0.0214
     16 C         140.4844  140.8850  168.8847 C.ar    1  UNL1        0.1395
     17 S         139.6200  140.0150  168.0208 S.O2    1  UNL1        0.0137
     18 O         138.8943  139.8879  169.3274 O.2     1  UNL1       -0.1685
     19 O         138.5036  139.1009  167.6108 O.2     1  UNL1       -0.1685
     20 O         142.5123  139.7432  160.1907 O.3     1  UNL1       -0.4754
     21 C         143.7466  140.3755  159.6192 C.3     1  UNL1        0.2068
     22 C         143.8545  141.8693  159.5366 C.3     1  UNL1        0.0646
     23 C         144.8576  142.5967  160.3821 C.3     1  UNL1        0.0759
     24 N         144.7192  142.5983  161.8756 N.3     1  UNL1       -0.2726
     25 C         143.9599  143.6037  162.6897 C.3     1  UNL1        0.0721
     26 C         144.0872  143.2216  164.1346 C.3     1  UNL1        0.0188
     27 C         144.9252  141.9799  164.2135 C.3     1  UNL1        0.0188
     28 C         145.3158  141.5948  162.8174 C.3     1  UNL1        0.0721
@<TRIPOS>BOND
     1     8     7    1
     2     8     9    1
     3     9     1    1
     4     1     2   ar
     5     2     3   ar
     6     3     4   ar
     7     4    20    1
     8    20    21    1
     9    21    22    1
    10    22    23    1
    11    23    24    1
    12    24    25    1
    13    25    26    1
    14    26    27    1
    15    27    28    1
    16     4     5   ar
    17     5     6   ar
    18     9    10    1
    19    10    11    1
    20    11    12   ar
    21    12    13   ar
    22    13    14   ar
    23    14    15   ar
    24    15    16   ar
    25    16    17    1
    26    17    18    2
    27    17    19    2
    28    17     8    1
    29     6     1   ar
    30    16    11   ar
    31    28    24    1
@<TRIPOS>MOLECULE
*****
 28 31 0 0 0
SMALL
GASTEIGER

@<TRIPOS>ATOM
      1 C         139.6652  141.9483  164.2909 C.ar    1  UNL1        0.0191
      2 C         140.4783  141.5888  163.0828 C.ar    1  UNL1        0.0023
      3 C         139.9970  141.9701  161.7142 C.ar    1  UNL1        0.0367
      4 C         138.7026  142.7108  161.5538 C.ar    1  UNL1        0.1385
      5 C         137.8894  143.0703  162.7619 C.ar    1  UNL1        0.0367
      6 C         138.3707  142.6891  164.1304 C.ar    1  UNL1        0.0023
      7 C         138.1690  139.8977  165.8898 C.3     1  UNL1        0.0300
      8 C         139.3984  140.5418  166.4590 C.3     1  UNL1        0.1779
      9 C         140.1465  141.5671  165.6595 C.3     1  UNL1        0.2102
     10 O         141.3758  142.2112  166.2286 O.3     1  UNL1       -0.4717
     11 C         141.8571  141.8300  167.5972 C.ar    1  UNL1        0.1559
     12 C         143.0864  142.4740  168.1664 C.ar    1  UNL1        0.0382
     13 C         143.5676  142.0928  169.5349 C.ar    1  UNL1        0.0032
     14 C         142.8195  141.0675  170.3344 C.ar    1  UNL1        0.0015
     15 C         141.5902  140.4234  169.7653 C.ar    1  UNL1        0.0214
     16 C         141.1090  140.8047  168.3967 C.ar    1  UNL1        0.1395
     17 S         139.8796  140.1606  167.8275 S.O2    1  UNL1        0.0137
     18 O         139.9414  139.4727  169.1591 O.2     1  UNL1       -0.1685
     19 O         138.6717  139.2776  167.7208 O.2     1  UNL1       -0.1685
     20 O         138.2213  143.0920  160.1851 O.3     1  UNL1       -0.4754
     21 C         139.1007  142.8667  158.9911 C.3     1  UNL1        0.2068
     22 C         138.9153  141.6432  158.1433 C.3     1  UNL1        0.0646
     23 C         137.9028  140.6073  158.5327 C.3     1  UNL1        0.0759
     24 N         138.1748  139.6895  159.6875 N.3     1  UNL1       -0.2726
     25 C         139.3733  138.8011  159.8444 C.3     1  UNL1        0.0721
     26 C         139.2354  138.0615  161.1420 C.3     1  UNL1        0.0188
     27 C         137.9516  138.4927  161.7872 C.3     1  UNL1        0.0188
     28 C         137.2962  139.4989  160.8882 C.3     1  UNL1        0.0721
@<TRIPOS>BOND
     1     8     7    1
     2     8     9    1
     3     9     1    1
     4     1     2   ar
     5     2     3   ar
     6     3     4   ar
     7     4    20    1
     8    20    21    1
     9    21    22    1
    10    22    23    1
    11    23    24    1
    12    24    25    1
    13    25    26    1
    14    26    27    1
    15    27    28    1
    16     4     5   ar
    17     5     6   ar
    18     9    10    1
    19    10    11    1
    20    11    12   ar
    21    12    13   ar
    22    13    14   ar
    23    14    15   ar
    24    15    16   ar
    25    16    17    1
    26    17    18    2
    27    17    19    2
    28    17     8    1
    29     6     1   ar
    30    16    11   ar
    31    28    24    1
@<TRIPOS>MOLECULE
*****
 28 31 0 0 0
SMALL
GASTEIGER

@<TRIPOS>ATOM
      1 C         141.2350  139.7431  164.5394 C.ar    1  UNL1        0.0191
      2 C         141.2392  140.8256  163.5011 C.ar    1  UNL1        0.0023
      3 C         141.4409  140.4778  162.0560 C.ar    1  UNL1        0.0367
      4 C         141.6384  139.0476  161.6492 C.ar    1  UNL1        0.1385
      5 C         141.6342  137.9651  162.6875 C.ar    1  UNL1        0.0367
      6 C         141.4325  138.3128  164.1326 C.ar    1  UNL1        0.0023
      7 C         138.7779  138.8010  165.9800 C.3     1  UNL1        0.0300
      8 C         139.8047  139.6197  166.7049 C.3     1  UNL1        0.1779
      9 C         141.0333  140.0907  165.9846 C.3     1  UNL1        0.2102
     10 O         142.0601  140.9094  166.7094 O.3     1  UNL1       -0.4717
     11 C         141.8584  141.2571  168.1546 C.ar    1  UNL1        0.1559
     12 C         142.8852  142.0757  168.8794 C.ar    1  UNL1        0.0382
     13 C         142.6834  142.4234  170.3246 C.ar    1  UNL1        0.0032
     14 C         141.4549  141.9524  171.0448 C.ar    1  UNL1        0.0015
     15 C         140.4281  141.1337  170.3200 C.ar    1  UNL1        0.0214
     16 C         140.6298  140.7861  168.8749 C.ar    1  UNL1        0.1395
     17 S         139.6030  139.9674  168.1500 S.O2    1  UNL1        0.0137
     18 O         138.9680  140.0394  169.5071 O.2     1  UNL1       -0.1685
     19 O         138.3556  139.1737  167.8964 O.2     1  UNL1       -0.1685
     20 O         141.8401  138.6999  160.2040 O.3     1  UNL1       -0.4754
     21 C         140.6640  138.6445  159.2747 C.3     1  UNL1        0.2068
     22 C         139.2697  138.6759  159.8270 C.3     1  UNL1        0.0646
     23 C         138.4696  139.9436  159.7719 C.3     1  UNL1        0.0759
     24 N         138.1460  140.6817  161.0370 N.3     1  UNL1       -0.2726
     25 C         137.7573  140.0601  162.3456 C.3     1  UNL1        0.0721
     26 C         137.5253  141.1653  163.3330 C.3     1  UNL1        0.0188
     27 C         137.7706  142.4699  162.6344 C.3     1  UNL1        0.0188
     28 C         138.1542  142.1710  161.2155 C.3     1  UNL1        0.0721
@<TRIPOS>BOND
     1     8     7    1
     2     8     9    1
     3     9     1    1
     4     1     2   ar
     5     2     3   ar
     6     3     4   ar
     7     4    20    1
     8    20    21    1
     9    21    22    1
    10    22    23    1
    11    23    24    1
    12    24    25    1
    13    25    26    1
    14    26    27    1
    15    27    28    1
    16     4     5   ar
    17     5     6   ar
    18     9    10    1
    19    10    11    1
    20    11    12   ar
    21    12    13   ar
    22    13    14   ar
    23    14    15   ar
    24    15    16   ar
    25    16    17    1
    26    17    18    2
    27    17    19    2
    28    17     8    1
    29     6     1   ar
    30    16    11   ar
    31    28    24    1
@<TRIPOS>MOLECULE
*****
 28 31 0 0 0
SMALL
GASTEIGER

@<TRIPOS>ATOM
      1 C         139.7441  141.6679  164.8018 C.ar    1  UNL1        0.0191
      2 C         140.4850  142.5001  163.7976 C.ar    1  UNL1        0.0023
      3 C         139.8259  142.8782  162.5043 C.ar    1  UNL1        0.0367
      4 C         138.4258  142.4241  162.2153 C.ar    1  UNL1        0.1385
      5 C         137.6849  141.5919  163.2195 C.ar    1  UNL1        0.0367
      6 C         138.3440  141.2138  164.5127 C.ar    1  UNL1        0.0023
      7 C         141.8082  139.4916  164.8532 C.3     1  UNL1        0.0300
      8 C         141.4353  140.2016  166.1208 C.3     1  UNL1        0.1779
      9 C         140.4032  141.2898  166.0951 C.3     1  UNL1        0.2102
     10 O         140.0303  141.9999  167.3626 O.3     1  UNL1       -0.4717
     11 C         140.6894  141.6217  168.6560 C.ar    1  UNL1        0.1559
     12 C         140.3165  142.3318  169.9235 C.ar    1  UNL1        0.0382
     13 C         140.9756  141.9537  171.2167 C.ar    1  UNL1        0.0032
     14 C         142.0077  140.8655  171.2424 C.ar    1  UNL1        0.0015
     15 C         142.3807  140.1554  169.9749 C.ar    1  UNL1        0.0214
     16 C         141.7215  140.5336  168.6817 C.ar    1  UNL1        0.1395
     17 S         142.0945  139.8235  167.4140 S.O2    1  UNL1        0.0137
     18 O         142.9913  139.1130  168.3841 O.2     1  UNL1       -0.1685
     19 O         142.7789  138.8667  166.4833 O.2     1  UNL1       -0.1685
     20 O         137.7666  142.8022  160.9219 O.3     1  UNL1       -0.4754
     21 C         138.5089  142.6454  159.6280 C.3     1  UNL1        0.2068
     22 C         138.7005  141.2815  159.0338 C.3     1  UNL1        0.0646
     23 C         137.9054  140.1195  159.5513 C.3     1  UNL1        0.0759
     24 N         138.4583  139.2629  160.6514 N.3     1  UNL1       -0.2726
     25 C         137.6555  138.4619  161.6333 C.3     1  UNL1        0.0721
     26 C         138.6121  137.7608  162.5516 C.3     1  UNL1        0.0188
     27 C         140.0061  138.1286  162.1373 C.3     1  UNL1        0.0188
     28 C         139.9110  139.0569  160.9630 C.3     1  UNL1        0.0721
@<TRIPOS>BOND
     1     8     7    1
     2     8     9    1
     3     9     1    1
     4     1     2   ar
     5     2     3   ar
     6     3     4   ar
     7     4    20    1
     8    20    21    1
     9    21    22    1
    10    22    23    1
    11    23    24    1
    12    24    25    1
    13    25    26    1
    14    26    27    1
    15    27    28    1
    16     4     5   ar
    17     5     6   ar
    18     9    10    1
    19    10    11    1
    20    11    12   ar
    21    12    13   ar
    22    13    14   ar
    23    14    15   ar
    24    15    16   ar
    25    16    17    1
    26    17    18    2
    27    17    19    2
    28    17     8    1
    29     6     1   ar
    30    16    11   ar
    31    28    24    1
@<TRIPOS>MOLECULE
*****
 28 31 0 0 0
SMALL
GASTEIGER

@<TRIPOS>ATOM
      1 C         141.5433  139.7766  164.5388 C.ar    1  UNL1        0.0191
      2 C         142.2995  138.5073  164.2804 C.ar    1  UNL1        0.0023
      3 C         142.7141  138.1525  162.8832 C.ar    1  UNL1        0.0367
      4 C         142.3726  139.0671  161.7444 C.ar    1  UNL1        0.1385
      5 C         141.6164  140.3365  162.0028 C.ar    1  UNL1        0.0367
      6 C         141.2017  140.6912  163.4000 C.ar    1  UNL1        0.0023
      7 C         139.0494  138.5900  165.7103 C.3     1  UNL1        0.0300
      8 C         139.8817  139.5381  166.5218 C.3     1  UNL1        0.1779
      9 C         141.1286  140.1314  165.9360 C.3     1  UNL1        0.2102
     10 O         141.9609  141.0795  166.7475 O.3     1  UNL1       -0.4717
     11 C         141.5462  141.4343  168.1447 C.ar    1  UNL1        0.1559
     12 C         142.3785  142.3824  168.9562 C.ar    1  UNL1        0.0382
     13 C         141.9638  142.7371  170.3533 C.ar    1  UNL1        0.0032
     14 C         140.7168  142.1438  170.9391 C.ar    1  UNL1        0.0015
     15 C         139.8845  141.1958  170.1276 C.ar    1  UNL1        0.0214
     16 C         140.2992  140.8410  168.7305 C.ar    1  UNL1        0.1395
     17 S         139.4670  139.8929  167.9189 S.O2    1  UNL1        0.0137
     18 O         138.6667  139.9219  169.1873 O.2     1  UNL1       -0.1685
     19 O         138.3567  138.9549  167.5480 O.2     1  UNL1       -0.1685
     20 O         142.7873  138.7123  160.3472 O.3     1  UNL1       -0.4754
     21 C         142.0832  139.3308  159.1760 C.3     1  UNL1        0.2068
     22 C         140.9499  138.6051  158.5135 C.3     1  UNL1        0.0646
     23 C         139.5460  139.1122  158.6613 C.3     1  UNL1        0.0759
     24 N         138.9074  139.1675  160.0175 N.3     1  UNL1       -0.2726
     25 C         138.9111  138.0692  161.0391 C.3     1  UNL1        0.0721
     26 C         138.1590  138.5537  162.2432 C.3     1  UNL1        0.0188
     27 C         137.6905  139.9514  161.9656 C.3     1  UNL1        0.0188
     28 C         138.1531  140.3307  160.5900 C.3     1  UNL1        0.0721
@<TRIPOS>BOND
     1     8     7    1
     2     8     9    1
     3     9     1    1
     4     1     2   ar
     5     2     3   ar
     6     3     4   ar
     7     4    20    1
     8    20    21    1
     9    21    22    1
    10    22    23    1
    11    23    24    1
    12    24    25    1
    13    25    26    1
    14    26    27    1
    15    27    28    1
    16     4     5   ar
    17     5     6   ar
    18     9    10    1
    19    10    11    1
    20    11    12   ar
    21    12    13   ar
    22    13    14   ar
    23    14    15   ar
    24    15    16   ar
    25    16    17    1
    26    17    18    2
    27    17    19    2
    28    17     8    1
    29     6     1   ar
    30    16    11   ar
    31    28    24    1
