@<TRIPOS>MOLECULE
*****
 40 44 0 0 0
SMALL
GASTEIGER

@<TRIPOS>ATOM
      1 C         142.6703  140.5629  165.8639 C.3     1  UNL1        0.1517
      2 C         141.9170  141.6472  165.1520 C.2     1  UNL1        0.3504
      3 N         140.4319  141.5355  164.9728 N.2     1  UNL1       -0.0411
      4 C         139.6787  142.6198  164.2609 C.2     1  UNL1        0.2134
      5 C         138.1936  142.5081  164.0817 C.3     1  UNL1        0.2481
      6 F         137.4618  141.3120  164.6144 F       1  UNL1       -0.2234
      7 C         137.4404  143.5924  163.3698 C.2     1  UNL1        0.0166
      8 C         138.1722  144.7885  162.8371 C.2     1  UNL1       -0.0053
      9 C         139.6572  144.9003  163.0163 C.2     1  UNL1       -0.0119
     10 C         140.3890  146.0964  162.4836 C.3     1  UNL1        0.0314
     11 C         140.4105  143.8159  163.7282 C.2     1  UNL1        0.1197
     12 C         141.8956  143.9277  163.9074 C.2     1  UNL1        0.3783
     13 O         142.6274  145.1238  163.3747 O.2     1  UNL1       -0.2376
     14 N         142.6488  142.8433  164.6193 N.am    1  UNL1        0.0324
     15 C         142.7510  140.5648  167.3617 C.ar    1  UNL1       -0.0070
     16 C         142.9838  141.8504  168.0986 C.ar    1  UNL1       -0.0035
     17 C         143.0645  141.8523  169.5965 C.ar    1  UNL1        0.0020
     18 C         142.9124  140.5686  170.3574 C.ar    1  UNL1        0.0296
     19 C         142.6796  139.2830  169.6205 C.ar    1  UNL1        0.1398
     20 F         142.5274  137.9993  170.3814 F       1  UNL1       -0.2042
     21 C         142.5988  139.2811  168.1227 C.ar    1  UNL1        0.0260
     22 C         143.3428  139.4766  165.0780 C.3     1  UNL1        0.1063
     23 C         143.1473  139.6350  162.4921 C.2     1  UNL1        0.2475
     24 O         144.1558  140.7453  162.4838 O.2     1  UNL1       -0.2701
     25 N         142.7408  139.0007  163.7892 N.am    1  UNL1       -0.2999
     26 H         142.0788  138.2719  163.7946 H       1  UNL1        0.1498
     27 C         141.3410  138.2071  158.6258 C.ar    1  UNL1        0.0863
     28 C         140.7331  139.3694  159.3535 C.ar    1  UNL1        0.0308
     29 C         141.3352  139.8453  160.6422 C.ar    1  UNL1        0.0643
     30 CL        140.7272  141.0077  161.3699 Cl      1  UNL1       -0.0820
     31 C         142.5452  139.1590  161.2033 C.ar    1  UNL1        0.0745
     32 C         143.1531  137.9967  160.4756 C.ar    1  UNL1        0.0643
     33 CL        144.3631  137.3104  161.0367 Cl      1  UNL1       -0.0820
     34 C         142.5510  137.5208  159.1869 C.ar    1  UNL1        0.0308
     35 C         137.9885  137.5008  154.6079 C.3     1  UNL1        0.0756
     36 C         139.1979  137.4065  155.4902 C.ar    1  UNL1        0.1613
     37 N         140.4269  136.5908  155.2173 N.ar    1  UNL1       -0.2073
     38 C         141.3792  136.7915  156.3587 C.ar    1  UNL1        0.2013
     39 N         140.7389  137.7311  157.3370 N.ar    1  UNL1       -0.2083
     40 N         139.3908  138.1112  156.8002 N.ar    1  UNL1       -0.1487
@<TRIPOS>BOND
     1    35    36    1
     2    36    37   ar
     3    37    38   ar
     4    38    39   ar
     5    39    27    1
     6    27    28   ar
     7    28    29   ar
     8    29    30    1
     9    29    31   ar
    10    31    23    1
    11    23    24    2
    12    23    25   am
    13    25    22    1
    14     1    22    1
    15     1    15    1
    16    15    16   ar
    17    16    17   ar
    18    17    18   ar
    19    18    19   ar
    20    19    20    1
    21    19    21   ar
    22     1     2    1
    23     2     3    1
    24     3     4    2
    25     4     5    1
    26     5     6    1
    27     5     7    1
    28     7     8    2
    29     8     9    1
    30     9    10    1
    31     9    11    2
    32    11    12    1
    33    12    13    2
    34    12    14    1
    35    31    32   ar
    36    32    33    1
    37    32    34   ar
    38    39    40   ar
    39    40    36   ar
    40    34    27   ar
    41    21    15   ar
    42    14     2    2
    43    11     4    1
    44    25    26    1
@<TRIPOS>MOLECULE
*****
 40 44 0 0 0
SMALL
GASTEIGER

@<TRIPOS>ATOM
      1 C         142.5379  140.5804  165.8664 C.3     1  UNL1        0.1517
      2 C         141.6342  141.5683  165.1898 C.2     1  UNL1        0.3504
      3 N         142.2190  142.7247  164.4344 N.2     1  UNL1       -0.0411
      4 C         141.3154  143.7124  163.7579 C.2     1  UNL1        0.2134
      5 C         141.9002  144.8689  163.0024 C.3     1  UNL1        0.2481
      6 F         143.3886  145.0376  162.9236 F       1  UNL1       -0.2234
      7 C         140.9965  145.8567  162.3258 C.2     1  UNL1        0.0166
      8 C         139.5081  145.6880  162.4047 C.2     1  UNL1       -0.0053
      9 C         138.9234  144.5316  163.1601 C.2     1  UNL1       -0.0119
     10 C         137.4350  144.3629  163.2389 C.3     1  UNL1        0.0314
     11 C         139.8270  143.5437  163.8367 C.2     1  UNL1        0.1197
     12 C         139.2422  142.3873  164.5921 C.2     1  UNL1        0.3783
     13 O         137.7538  142.2186  164.6709 O.2     1  UNL1       -0.2376
     14 N         140.1459  141.3996  165.2686 N.am    1  UNL1        0.0324
     15 C         142.6988  140.6100  167.3574 C.ar    1  UNL1       -0.0070
     16 C         143.0200  141.9003  168.0517 C.ar    1  UNL1       -0.0035
     17 C         143.1809  141.9299  169.5428 C.ar    1  UNL1        0.0020
     18 C         143.0206  140.6692  170.3396 C.ar    1  UNL1        0.0296
     19 C         142.6994  139.3789  169.6453 C.ar    1  UNL1        0.1398
     20 F         142.5391  138.1182  170.4421 F       1  UNL1       -0.2042
     21 C         142.5385  139.3493  168.1543 C.ar    1  UNL1        0.0260
     22 C         143.2806  139.5631  165.0519 C.3     1  UNL1        0.1063
     23 C         143.0512  139.7414  162.4702 C.2     1  UNL1        0.2475
     24 O         143.9851  140.9151  162.4682 O.2     1  UNL1       -0.2701
     25 N         142.6989  139.0653  163.7620 N.am    1  UNL1       -0.2999
     26 H         142.0859  138.2950  163.7633 H       1  UNL1        0.1498
     27 C         141.3061  138.2481  158.6005 C.ar    1  UNL1        0.0863
     28 C         140.6574  139.3905  159.3243 C.ar    1  UNL1        0.0308
     29 C         141.2391  139.8883  160.6142 C.ar    1  UNL1        0.0643
     30 CL        140.5904  141.0308  161.3381 Cl      1  UNL1       -0.0820
     31 C         142.4695  139.2436  161.1802 C.ar    1  UNL1        0.0745
     32 C         143.1182  138.1011  160.4564 C.ar    1  UNL1        0.0643
     33 CL        144.3486  137.4564  161.0225 Cl      1  UNL1       -0.0820
     34 C         142.5365  137.6034  159.1665 C.ar    1  UNL1        0.0308
     35 C         138.0596  137.5454  154.4958 C.3     1  UNL1        0.0756
     36 C         139.2322  137.4273  155.4239 C.ar    1  UNL1        0.1613
     37 N         140.4265  136.5412  155.2272 N.ar    1  UNL1       -0.2073
     38 C         141.3487  136.7409  156.3933 C.ar    1  UNL1        0.2013
     39 N         140.7244  137.7503  157.3105 N.ar    1  UNL1       -0.2083
     40 N         139.4163  138.1745  156.7114 N.ar    1  UNL1       -0.1487
@<TRIPOS>BOND
     1    35    36    1
     2    36    37   ar
     3    37    38   ar
     4    38    39   ar
     5    39    27    1
     6    27    28   ar
     7    28    29   ar
     8    29    30    1
     9    29    31   ar
    10    31    23    1
    11    23    24    2
    12    23    25   am
    13    25    22    1
    14     1    22    1
    15     1    15    1
    16    15    16   ar
    17    16    17   ar
    18    17    18   ar
    19    18    19   ar
    20    19    20    1
    21    19    21   ar
    22     1     2    1
    23     2     3    1
    24     3     4    2
    25     4     5    1
    26     5     6    1
    27     5     7    1
    28     7     8    2
    29     8     9    1
    30     9    10    1
    31     9    11    2
    32    11    12    1
    33    12    13    2
    34    12    14    1
    35    31    32   ar
    36    32    33    1
    37    32    34   ar
    38    39    40   ar
    39    40    36   ar
    40    34    27   ar
    41    21    15   ar
    42    14     2    2
    43    11     4    1
    44    25    26    1
@<TRIPOS>MOLECULE
*****
 40 44 0 0 0
SMALL
GASTEIGER

@<TRIPOS>ATOM
      1 C         141.5176  142.0121  164.3219 C.3     1  UNL1        0.1517
      2 C         141.6921  141.5517  165.7388 C.2     1  UNL1        0.3504
      3 N         141.1495  142.3770  166.8677 N.2     1  UNL1       -0.0411
      4 C         141.3239  141.9166  168.2846 C.2     1  UNL1        0.2134
      5 C         140.7813  142.7419  169.4136 C.3     1  UNL1        0.2481
      6 F         140.0643  144.0276  169.1256 F       1  UNL1       -0.2234
      7 C         140.9557  142.2815  170.8304 C.2     1  UNL1        0.0166
      8 C         141.6727  140.9958  171.1184 C.2     1  UNL1       -0.0053
      9 C         142.2153  140.1706  169.9895 C.2     1  UNL1       -0.0119
     10 C         142.9323  138.8849  170.2775 C.3     1  UNL1        0.0314
     11 C         142.0409  140.6309  168.5726 C.2     1  UNL1        0.1197
     12 C         142.5835  139.8057  167.4437 C.2     1  UNL1        0.3783
     13 O         143.3005  138.5200  167.7316 O.2     1  UNL1       -0.2376
     14 N         142.4091  140.2660  166.0268 N.am    1  UNL1        0.0324
     15 C         140.3080  142.8108  163.9363 C.ar    1  UNL1       -0.0070
     16 C         138.9350  142.2678  164.2010 C.ar    1  UNL1       -0.0035
     17 C         137.7253  143.0666  163.8154 C.ar    1  UNL1        0.0020
     18 C         137.8886  144.4084  163.1651 C.ar    1  UNL1        0.0296
     19 C         139.2616  144.9514  162.9004 C.ar    1  UNL1        0.1398
     20 F         139.4249  146.2932  162.2502 F       1  UNL1       -0.2042
     21 C         140.4712  144.1527  163.2860 C.ar    1  UNL1        0.0260
     22 C         142.5529  141.6737  163.2905 C.3     1  UNL1        0.1063
     23 C         141.4191  139.8660  161.8084 C.2     1  UNL1        0.2475
     24 O         141.1286  139.0462  163.0305 O.2     1  UNL1       -0.2701
     25 N         142.1312  141.1798  161.9384 N.am    1  UNL1       -0.2999
     26 H         142.3219  141.7179  161.1363 H       1  UNL1        0.1498
     27 C         140.1541  138.3843  157.7521 C.ar    1  UNL1        0.0863
     28 C         141.4888  137.9903  158.3117 C.ar    1  UNL1        0.0308
     29 C         141.9104  138.4842  159.6638 C.ar    1  UNL1        0.0643
     30 CL        143.2452  138.0903  160.2236 Cl      1  UNL1       -0.0820
     31 C         140.9974  139.3721  160.4563 C.ar    1  UNL1        0.0745
     32 C         139.6626  139.7661  159.8966 C.ar    1  UNL1        0.0643
     33 CL        138.7496  140.6540  160.6890 Cl      1  UNL1       -0.0820
     34 C         139.2410  139.2722  158.5445 C.ar    1  UNL1        0.0308
     35 C         137.2999  137.4721  153.4043 C.3     1  UNL1        0.0756
     36 C         138.4205  137.4711  154.4015 C.ar    1  UNL1        0.1613
     37 N         139.7466  136.7896  154.2368 N.ar    1  UNL1       -0.2073
     38 C         140.5574  137.0488  155.4719 C.ar    1  UNL1        0.2013
     39 N         139.7324  137.8904  156.3999 N.ar    1  UNL1       -0.2083
     40 N         138.4117  138.1514  155.7383 N.ar    1  UNL1       -0.1487
@<TRIPOS>BOND
     1    35    36    1
     2    36    37   ar
     3    37    38   ar
     4    38    39   ar
     5    39    27    1
     6    27    28   ar
     7    28    29   ar
     8    29    30    1
     9    29    31   ar
    10    31    23    1
    11    23    24    2
    12    23    25   am
    13    25    22    1
    14     1    22    1
    15     1    15    1
    16    15    16   ar
    17    16    17   ar
    18    17    18   ar
    19    18    19   ar
    20    19    20    1
    21    19    21   ar
    22     1     2    1
    23     2     3    1
    24     3     4    2
    25     4     5    1
    26     5     6    1
    27     5     7    1
    28     7     8    2
    29     8     9    1
    30     9    10    1
    31     9    11    2
    32    11    12    1
    33    12    13    2
    34    12    14    1
    35    31    32   ar
    36    32    33    1
    37    32    34   ar
    38    39    40   ar
    39    40    36   ar
    40    34    27   ar
    41    21    15   ar
    42    14     2    2
    43    11     4    1
    44    25    26    1
@<TRIPOS>MOLECULE
*****
 40 44 0 0 0
SMALL
GASTEIGER

@<TRIPOS>ATOM
      1 C         141.5889  142.3355  164.4139 C.3     1  UNL1        0.1517
      2 C         141.7295  141.7669  165.7949 C.2     1  UNL1        0.3504
      3 N         141.1753  142.5120  166.9728 N.2     1  UNL1       -0.0411
      4 C         141.3159  141.9434  168.3536 C.2     1  UNL1        0.2134
      5 C         140.7617  142.6886  169.5317 C.3     1  UNL1        0.2481
      6 F         140.0668  144.0024  169.3287 F       1  UNL1       -0.2234
      7 C         140.9023  142.1200  170.9125 C.2     1  UNL1        0.0166
      8 C         141.5971  140.8062  171.1155 C.2     1  UNL1       -0.0053
      9 C         142.1514  140.0611  169.9376 C.2     1  UNL1       -0.0119
     10 C         142.8462  138.7473  170.1406 C.3     1  UNL1        0.0314
     11 C         142.0108  140.6297  168.5566 C.2     1  UNL1        0.1197
     12 C         142.5650  139.8845  167.3787 C.2     1  UNL1        0.3783
     13 O         143.2598  138.5707  167.5817 O.2     1  UNL1       -0.2376
     14 N         142.4243  140.4531  165.9978 N.am    1  UNL1        0.0324
     15 C         140.3217  143.0318  164.0150 C.ar    1  UNL1       -0.0070
     16 C         138.9932  142.4415  164.3846 C.ar    1  UNL1       -0.0035
     17 C         137.7259  143.1380  163.9857 C.ar    1  UNL1        0.0020
     18 C         137.7872  144.4246  163.2171 C.ar    1  UNL1        0.0296
     19 C         139.1157  145.0149  162.8474 C.ar    1  UNL1        0.1398
     20 F         139.1770  146.3016  162.0789 F       1  UNL1       -0.2042
     21 C         140.3829  144.3186  163.2464 C.ar    1  UNL1        0.0260
     22 C         142.7155  142.2077  163.4319 C.3     1  UNL1        0.1063
     23 C         143.5341  140.5232  161.6312 C.2     1  UNL1        0.2475
     24 O         144.7819  140.2789  162.4269 O.2     1  UNL1       -0.2701
     25 N         142.5009  141.4876  162.1337 N.am    1  UNL1       -0.2999
     26 H         141.6819  141.6479  161.6114 H       1  UNL1        0.1498
     27 C         142.8899  138.3629  157.7366 C.ar    1  UNL1        0.0863
     28 C         142.5885  137.6746  159.0347 C.ar    1  UNL1        0.0308
     29 C         142.8032  138.3947  160.3329 C.ar    1  UNL1        0.0643
     30 CL        142.5018  137.7064  161.6312 Cl      1  UNL1       -0.0820
     31 C         143.3194  139.8031  160.3329 C.ar    1  UNL1        0.0745
     32 C         143.6208  140.4914  159.0347 C.ar    1  UNL1        0.0643
     33 CL        144.1369  141.8999  159.0347 Cl      1  UNL1       -0.0820
     34 C         143.4060  139.7714  157.7366 C.ar    1  UNL1        0.0308
     35 C         141.5275  134.6888  154.1974 C.3     1  UNL1        0.0756
     36 C         142.0490  135.9541  154.8115 C.ar    1  UNL1        0.1613
     37 N         142.6407  137.1156  154.0694 N.ar    1  UNL1       -0.2073
     38 C         143.0277  138.1593  155.0748 C.ar    1  UNL1        0.2013
     39 N         142.6752  137.6428  156.4383 N.ar    1  UNL1       -0.2083
     40 N         142.0703  136.2799  156.2756 N.ar    1  UNL1       -0.1487
@<TRIPOS>BOND
     1    35    36    1
     2    36    37   ar
     3    37    38   ar
     4    38    39   ar
     5    39    27    1
     6    27    28   ar
     7    28    29   ar
     8    29    30    1
     9    29    31   ar
    10    31    23    1
    11    23    24    2
    12    23    25   am
    13    25    22    1
    14     1    22    1
    15     1    15    1
    16    15    16   ar
    17    16    17   ar
    18    17    18   ar
    19    18    19   ar
    20    19    20    1
    21    19    21   ar
    22     1     2    1
    23     2     3    1
    24     3     4    2
    25     4     5    1
    26     5     6    1
    27     5     7    1
    28     7     8    2
    29     8     9    1
    30     9    10    1
    31     9    11    2
    32    11    12    1
    33    12    13    2
    34    12    14    1
    35    31    32   ar
    36    32    33    1
    37    32    34   ar
    38    39    40   ar
    39    40    36   ar
    40    34    27   ar
    41    21    15   ar
    42    14     2    2
    43    11     4    1
    44    25    26    1
@<TRIPOS>MOLECULE
*****
 40 44 0 0 0
SMALL
GASTEIGER

@<TRIPOS>ATOM
      1 C         138.6304  141.6727  157.7393 C.3     1  UNL1        0.1517
      2 C         138.5095  141.6296  159.2339 C.2     1  UNL1        0.3504
      3 N         138.6436  140.3239  159.9598 N.2     1  UNL1       -0.0411
      4 C         138.5227  140.2809  161.4543 C.2     1  UNL1        0.2134
      5 C         138.6568  138.9752  162.1804 C.3     1  UNL1        0.2481
      6 F         138.9117  137.7125  161.4119 F       1  UNL1       -0.2234
      7 C         138.5359  138.9321  163.6748 C.2     1  UNL1        0.0166
      8 C         138.2809  140.1948  164.4433 C.2     1  UNL1       -0.0053
      9 C         138.1468  141.5006  163.7174 C.2     1  UNL1       -0.0119
     10 C         137.8918  142.7633  164.4858 C.3     1  UNL1        0.0314
     11 C         138.2677  141.5436  162.2228 C.2     1  UNL1        0.1197
     12 C         138.1336  142.8493  161.4968 C.2     1  UNL1        0.3783
     13 O         137.8787  144.1120  162.2653 O.2     1  UNL1       -0.2376
     14 N         138.2545  142.8923  160.0024 N.am    1  UNL1        0.0324
     15 C         139.1418  142.9103  157.0636 C.ar    1  UNL1       -0.0070
     16 C         140.5968  143.2649  157.1493 C.ar    1  UNL1       -0.0035
     17 C         141.1081  144.5027  156.4736 C.ar    1  UNL1        0.0020
     18 C         140.1646  145.3857  155.7121 C.ar    1  UNL1        0.0296
     19 C         138.7096  145.0311  155.6263 C.ar    1  UNL1        0.1398
     20 F         137.7661  145.9141  154.8648 F       1  UNL1       -0.2042
     21 C         138.1982  143.7934  156.3020 C.ar    1  UNL1        0.0260
     22 C         138.2399  140.4781  156.9206 C.3     1  UNL1        0.1063
     23 C         140.2937  139.0392  156.2413 C.2     1  UNL1        0.2475
     24 O         140.7731  140.1450  155.3484 O.2     1  UNL1       -0.2701
     25 N         139.0271  139.2058  157.0274 N.am    1  UNL1       -0.2999
     26 H         138.7125  138.4800  157.6135 H       1  UNL1        0.1498
     27 C         142.6554  135.2222  156.5619 C.ar    1  UNL1        0.0863
     28 C         141.5386  135.3318  155.5666 C.ar    1  UNL1        0.0308
     29 C         140.7514  136.6041  155.4597 C.ar    1  UNL1        0.0643
     30 CL        139.6346  136.7138  154.4643 Cl      1  UNL1       -0.0820
     31 C         141.0810  137.7669  156.3482 C.ar    1  UNL1        0.0745
     32 C         142.1977  137.6572  157.3436 C.ar    1  UNL1        0.0643
     33 CL        142.5273  138.8200  158.2321 Cl      1  UNL1       -0.0820
     34 C         142.9849  136.3849  157.4504 C.ar    1  UNL1        0.0308
     35 C         144.8036  130.5352  155.4224 C.3     1  UNL1        0.0756
     36 C         144.4300  131.7955  156.1451 C.ar    1  UNL1        0.1613
     37 N         144.8781  132.1883  157.5217 N.ar    1  UNL1       -0.2073
     38 C         144.2678  133.5198  157.8454 C.ar    1  UNL1        0.2013
     39 N         143.4426  133.9498  156.6688 N.ar    1  UNL1       -0.2083
     40 N         143.5429  132.8841  155.6180 N.ar    1  UNL1       -0.1487
@<TRIPOS>BOND
     1    35    36    1
     2    36    37   ar
     3    37    38   ar
     4    38    39   ar
     5    39    27    1
     6    27    28   ar
     7    28    29   ar
     8    29    30    1
     9    29    31   ar
    10    31    23    1
    11    23    24    2
    12    23    25   am
    13    25    22    1
    14     1    22    1
    15     1    15    1
    16    15    16   ar
    17    16    17   ar
    18    17    18   ar
    19    18    19   ar
    20    19    20    1
    21    19    21   ar
    22     1     2    1
    23     2     3    1
    24     3     4    2
    25     4     5    1
    26     5     6    1
    27     5     7    1
    28     7     8    2
    29     8     9    1
    30     9    10    1
    31     9    11    2
    32    11    12    1
    33    12    13    2
    34    12    14    1
    35    31    32   ar
    36    32    33    1
    37    32    34   ar
    38    39    40   ar
    39    40    36   ar
    40    34    27   ar
    41    21    15   ar
    42    14     2    2
    43    11     4    1
    44    25    26    1
@<TRIPOS>MOLECULE
*****
 40 44 0 0 0
SMALL
GASTEIGER

@<TRIPOS>ATOM
      1 C         141.2657  144.1923  157.5603 C.3     1  UNL1        0.1517
      2 C         141.2146  144.2852  159.0566 C.2     1  UNL1        0.3504
      3 N         142.4399  143.9871  159.8688 N.2     1  UNL1       -0.0411
      4 C         142.3888  144.0801  161.3650 C.2     1  UNL1        0.2134
      5 C         143.6141  143.7820  162.1774 C.3     1  UNL1        0.2481
      6 F         144.8905  143.3909  161.4934 F       1  UNL1       -0.2234
      7 C         143.5630  143.8750  163.6736 C.2     1  UNL1        0.0166
      8 C         142.2866  144.2661  164.3576 C.2     1  UNL1       -0.0053
      9 C         141.0613  144.5642  163.5453 C.2     1  UNL1       -0.0119
     10 C         139.7849  144.9553  164.2293 C.3     1  UNL1        0.0314
     11 C         141.1124  144.4712  162.0490 C.2     1  UNL1        0.1197
     12 C         139.8871  144.7693  161.2368 C.2     1  UNL1        0.3783
     13 O         138.6107  145.1604  161.9208 O.2     1  UNL1       -0.2376
     14 N         139.9382  144.6763  159.7406 N.am    1  UNL1        0.0324
     15 C         140.2279  144.8873  156.7298 C.ar    1  UNL1       -0.0070
     16 C         139.1488  144.0914  156.0575 C.ar    1  UNL1       -0.0035
     17 C         138.1109  144.7865  155.2270 C.ar    1  UNL1        0.0020
     18 C         138.1522  146.2775  155.0688 C.ar    1  UNL1        0.0296
     19 C         139.2313  147.0735  155.7411 C.ar    1  UNL1        0.1398
     20 F         139.2726  148.5645  155.5829 F       1  UNL1       -0.2042
     21 C         140.2691  146.3784  156.5716 C.ar    1  UNL1        0.0260
     22 C         142.3546  143.4042  156.8946 C.3     1  UNL1        0.1063
     23 C         143.2929  141.0187  157.3174 C.2     1  UNL1        0.2475
     24 O         144.4846  141.6102  158.0103 O.2     1  UNL1       -0.2701
     25 N         142.2280  141.9157  156.7596 N.am    1  UNL1       -0.2999
     26 H         141.4459  141.5275  156.3048 H       1  UNL1        0.1498
     27 C         142.9128  136.5531  156.9123 C.ar    1  UNL1        0.0863
     28 C         142.5770  137.2194  158.2135 C.ar    1  UNL1        0.0308
     29 C         142.7037  138.7079  158.3486 C.ar    1  UNL1        0.0643
     30 CL        142.3679  139.3743  159.6498 Cl      1  UNL1       -0.0820
     31 C         143.1662  139.5301  157.1823 C.ar    1  UNL1        0.0745
     32 C         143.5021  138.8638  155.8811 C.ar    1  UNL1        0.0643
     33 CL        143.9646  139.6860  154.7149 Cl      1  UNL1       -0.0820
     34 C         143.3754  137.3753  155.7461 C.ar    1  UNL1        0.0308
     35 C         141.5419  131.7695  155.1464 C.3     1  UNL1        0.0756
     36 C         142.1560  132.8658  155.9656 C.ar    1  UNL1        0.1613
     37 N         143.0264  132.6821  157.1734 N.ar    1  UNL1       -0.2073
     38 C         143.4158  134.0410  157.6750 C.ar    1  UNL1        0.2013
     39 N         142.7861  135.0645  156.7773 N.ar    1  UNL1       -0.2083
     40 N         142.0075  134.3382  155.7208 N.ar    1  UNL1       -0.1487
@<TRIPOS>BOND
     1    35    36    1
     2    36    37   ar
     3    37    38   ar
     4    38    39   ar
     5    39    27    1
     6    27    28   ar
     7    28    29   ar
     8    29    30    1
     9    29    31   ar
    10    31    23    1
    11    23    24    2
    12    23    25   am
    13    25    22    1
    14     1    22    1
    15     1    15    1
    16    15    16   ar
    17    16    17   ar
    18    17    18   ar
    19    18    19   ar
    20    19    20    1
    21    19    21   ar
    22     1     2    1
    23     2     3    1
    24     3     4    2
    25     4     5    1
    26     5     6    1
    27     5     7    1
    28     7     8    2
    29     8     9    1
    30     9    10    1
    31     9    11    2
    32    11    12    1
    33    12    13    2
    34    12    14    1
    35    31    32   ar
    36    32    33    1
    37    32    34   ar
    38    39    40   ar
    39    40    36   ar
    40    34    27   ar
    41    21    15   ar
    42    14     2    2
    43    11     4    1
    44    25    26    1
@<TRIPOS>MOLECULE
*****
 40 44 0 0 0
SMALL
GASTEIGER

@<TRIPOS>ATOM
      1 C         141.2321  144.1090  157.6895 C.3     1  UNL1        0.1517
      2 C         141.1658  144.2147  159.1843 C.2     1  UNL1        0.3504
      3 N         142.4025  144.0044  160.0067 N.2     1  UNL1       -0.0411
      4 C         142.3361  144.1102  161.5015 C.2     1  UNL1        0.2134
      5 C         143.5728  143.8998  162.3239 C.3     1  UNL1        0.2481
      6 F         144.8759  143.5837  161.6515 F       1  UNL1       -0.2234
      7 C         143.5065  144.0056  163.8187 C.2     1  UNL1        0.0166
      8 C         142.2034  144.3217  164.4911 C.2     1  UNL1       -0.0053
      9 C         140.9667  144.5320  163.6687 C.2     1  UNL1       -0.0119
     10 C         139.6637  144.8481  164.3411 C.3     1  UNL1        0.0314
     11 C         141.0331  144.4263  162.1739 C.2     1  UNL1        0.1197
     12 C         139.7964  144.6366  161.3515 C.2     1  UNL1        0.3783
     13 O         138.4933  144.9527  162.0239 O.2     1  UNL1       -0.2376
     14 N         139.8628  144.5308  159.8567 N.am    1  UNL1        0.0324
     15 C         140.2056  144.8007  156.8424 C.ar    1  UNL1       -0.0070
     16 C         139.1444  144.0006  156.1470 C.ar    1  UNL1       -0.0035
     17 C         138.1178  144.6925  155.2998 C.ar    1  UNL1        0.0020
     18 C         138.1525  146.1843  155.1482 C.ar    1  UNL1        0.0296
     19 C         139.2137  146.9845  155.8436 C.ar    1  UNL1        0.1398
     20 F         139.2484  148.4763  155.6919 F       1  UNL1       -0.2042
     21 C         140.2402  146.2927  156.6907 C.ar    1  UNL1        0.0260
     22 C         142.3250  143.3114  157.0418 C.3     1  UNL1        0.1063
     23 C         143.3935  140.9466  157.1674 C.2     1  UNL1        0.2475
     24 O         144.7143  141.5621  157.5229 O.2     1  UNL1       -0.2701
     25 N         142.1988  141.8212  156.9269 N.am    1  UNL1       -0.2999
     26 H         141.3319  141.4172  156.6936 H       1  UNL1        0.1498
     27 C         143.0147  136.4758  156.8226 C.ar    1  UNL1        0.0863
     28 C         143.5901  137.2695  155.6873 C.ar    1  UNL1        0.0308
     29 C         143.7164  138.7597  155.8023 C.ar    1  UNL1        0.0643
     30 CL        144.2919  139.5535  154.6670 Cl      1  UNL1       -0.0820
     31 C         143.2672  139.4562  157.0525 C.ar    1  UNL1        0.0745
     32 C         142.6917  138.6626  158.1878 C.ar    1  UNL1        0.0643
     33 CL        142.2425  139.3591  159.4380 Cl      1  UNL1       -0.0820
     34 C         142.5655  137.1723  158.0728 C.ar    1  UNL1        0.0308
     35 C         141.5087  131.6714  155.2317 C.3     1  UNL1        0.0756
     36 C         142.1962  132.7772  155.9764 C.ar    1  UNL1        0.1613
     37 N         143.1921  132.6073  157.0852 N.ar    1  UNL1       -0.2073
     38 C         143.6199  133.9721  157.5371 C.ar    1  UNL1        0.2013
     39 N         142.8884  134.9855  156.7076 N.ar    1  UNL1       -0.2083
     40 N         142.0085  134.2470  155.7431 N.ar    1  UNL1       -0.1487
@<TRIPOS>BOND
     1    35    36    1
     2    36    37   ar
     3    37    38   ar
     4    38    39   ar
     5    39    27    1
     6    27    28   ar
     7    28    29   ar
     8    29    30    1
     9    29    31   ar
    10    31    23    1
    11    23    24    2
    12    23    25   am
    13    25    22    1
    14     1    22    1
    15     1    15    1
    16    15    16   ar
    17    16    17   ar
    18    17    18   ar
    19    18    19   ar
    20    19    20    1
    21    19    21   ar
    22     1     2    1
    23     2     3    1
    24     3     4    2
    25     4     5    1
    26     5     6    1
    27     5     7    1
    28     7     8    2
    29     8     9    1
    30     9    10    1
    31     9    11    2
    32    11    12    1
    33    12    13    2
    34    12    14    1
    35    31    32   ar
    36    32    33    1
    37    32    34   ar
    38    39    40   ar
    39    40    36   ar
    40    34    27   ar
    41    21    15   ar
    42    14     2    2
    43    11     4    1
    44    25    26    1
@<TRIPOS>MOLECULE
*****
 40 44 0 0 0
SMALL
GASTEIGER

@<TRIPOS>ATOM
      1 C         140.2161  141.2472  164.2500 C.3     1  UNL1        0.1517
      2 C         140.4062  141.0655  165.7269 C.2     1  UNL1        0.3504
      3 N         141.6135  141.6428  166.4043 N.2     1  UNL1       -0.0411
      4 C         141.8035  141.4611  167.8811 C.2     1  UNL1        0.2134
      5 C         143.0109  142.0385  168.5586 C.3     1  UNL1        0.2481
      6 F         144.0282  142.7976  167.7593 F       1  UNL1       -0.2234
      7 C         143.2009  141.8567  170.0353 C.2     1  UNL1        0.0166
      8 C         142.1836  141.0976  170.8346 C.2     1  UNL1       -0.0053
      9 C         140.9763  140.5202  170.1572 C.2     1  UNL1       -0.0119
     10 C         139.9590  139.7611  170.9565 C.3     1  UNL1        0.0314
     11 C         140.7862  140.7020  168.6803 C.2     1  UNL1        0.1197
     12 C         139.5789  140.1246  168.0029 C.2     1  UNL1        0.3783
     13 O         138.5616  139.3655  168.8022 O.2     1  UNL1       -0.2376
     14 N         139.3889  140.3064  166.5262 N.am    1  UNL1        0.0324
     15 C         139.7001  142.5501  163.7150 C.ar    1  UNL1       -0.0070
     16 C         138.2361  142.7190  163.4355 C.ar    1  UNL1       -0.0035
     17 C         137.7201  144.0219  162.9004 C.ar    1  UNL1        0.0020
     18 C         138.6682  145.1558  162.6449 C.ar    1  UNL1        0.0296
     19 C         140.1322  144.9869  162.9244 C.ar    1  UNL1        0.1398
     20 F         141.0802  146.1209  162.6688 F       1  UNL1       -0.2042
     21 C         140.6482  143.6841  163.4594 C.ar    1  UNL1        0.0260
     22 C         140.5420  140.1261  163.3084 C.3     1  UNL1        0.1063
     23 C         142.6298  140.7270  161.8836 C.2     1  UNL1        0.2475
     24 O         143.4737  140.7351  163.1235 O.2     1  UNL1       -0.2701
     25 N         141.1639  140.4225  161.9760 N.am    1  UNL1       -0.2999
     26 H         140.6100  140.4173  161.1621 H       1  UNL1        0.1498
     27 C         144.4953  141.6164  157.8862 C.ar    1  UNL1        0.0863
     28 C         144.1500  140.2041  158.2551 C.ar    1  UNL1        0.0308
     29 C         143.5282  139.9076  159.5875 C.ar    1  UNL1        0.0643
     30 CL        143.1828  138.4953  159.9565 Cl      1  UNL1       -0.0820
     31 C         143.2516  141.0235  160.5511 C.ar    1  UNL1        0.0745
     32 C         143.5970  142.4358  160.1822 C.ar    1  UNL1        0.0643
     33 CL        143.3204  143.5517  161.1457 Cl      1  UNL1       -0.0820
     34 C         144.2188  142.7322  158.8497 C.ar    1  UNL1        0.0308
     35 C         148.0399  142.1903  154.0148 C.3     1  UNL1        0.0756
     36 C         146.7464  142.1767  154.7743 C.ar    1  UNL1        0.1613
     37 N         145.4017  142.5615  154.2323 N.ar    1  UNL1       -0.2073
     38 C         144.3948  142.3984  155.3321 C.ar    1  UNL1        0.2013
     39 N         145.1172  141.9128  156.5537 N.ar    1  UNL1       -0.2083
     40 N         146.5706  141.7758  156.2090 N.ar    1  UNL1       -0.1487
@<TRIPOS>BOND
     1    35    36    1
     2    36    37   ar
     3    37    38   ar
     4    38    39   ar
     5    39    27    1
     6    27    28   ar
     7    28    29   ar
     8    29    30    1
     9    29    31   ar
    10    31    23    1
    11    23    24    2
    12    23    25   am
    13    25    22    1
    14     1    22    1
    15     1    15    1
    16    15    16   ar
    17    16    17   ar
    18    17    18   ar
    19    18    19   ar
    20    19    20    1
    21    19    21   ar
    22     1     2    1
    23     2     3    1
    24     3     4    2
    25     4     5    1
    26     5     6    1
    27     5     7    1
    28     7     8    2
    29     8     9    1
    30     9    10    1
    31     9    11    2
    32    11    12    1
    33    12    13    2
    34    12    14    1
    35    31    32   ar
    36    32    33    1
    37    32    34   ar
    38    39    40   ar
    39    40    36   ar
    40    34    27   ar
    41    21    15   ar
    42    14     2    2
    43    11     4    1
    44    25    26    1
@<TRIPOS>MOLECULE
*****
 40 44 0 0 0
SMALL
GASTEIGER

@<TRIPOS>ATOM
      1 C         141.4504  142.4430  164.4613 C.3     1  UNL1        0.1517
      2 C         141.4254  142.1104  165.9238 C.2     1  UNL1        0.3504
      3 N         142.0755  140.8523  166.4181 N.2     1  UNL1       -0.0411
      4 C         142.0503  140.5198  167.8805 C.2     1  UNL1        0.2134
      5 C         142.7005  139.2615  168.3749 C.3     1  UNL1        0.2481
      6 F         143.3757  138.3359  167.4067 F       1  UNL1       -0.2234
      7 C         142.6754  138.9290  169.8373 C.2     1  UNL1        0.0166
      8 C         142.0001  139.8546  170.8054 C.2     1  UNL1       -0.0053
      9 C         141.3500  141.1128  170.3112 C.2     1  UNL1       -0.0119
     10 C         140.6748  142.0384  171.2793 C.3     1  UNL1        0.0314
     11 C         141.3751  141.4454  168.8487 C.2     1  UNL1        0.1197
     12 C         140.7250  142.7035  168.3544 C.2     1  UNL1        0.3783
     13 O         140.0498  143.6292  169.3225 O.2     1  UNL1       -0.2376
     14 N         140.7501  143.0361  166.8919 N.am    1  UNL1        0.0324
     15 C         140.3143  143.2048  163.8458 C.ar    1  UNL1       -0.0070
     16 C         138.9384  142.6081  163.8194 C.ar    1  UNL1       -0.0035
     17 C         137.8022  143.3700  163.2038 C.ar    1  UNL1        0.0020
     18 C         138.0420  144.7284  162.6147 C.ar    1  UNL1        0.0296
     19 C         139.4180  145.3251  162.6411 C.ar    1  UNL1        0.1398
     20 F         139.6579  146.6835  162.0521 F       1  UNL1       -0.2042
     21 C         140.5541  144.5633  163.2567 C.ar    1  UNL1        0.0260
     22 C         142.6117  142.0138  163.6144 C.3     1  UNL1        0.1063
     23 C         141.9914  139.9521  162.1602 C.2     1  UNL1        0.2475
     24 O         141.8526  139.1194  163.4000 O.2     1  UNL1       -0.2701
     25 N         142.3710  141.3994  162.2674 N.am    1  UNL1       -0.2999
     26 H         142.4621  141.9459  161.4536 H       1  UNL1        0.1498
     27 C         141.2694  138.1088  158.1191 C.ar    1  UNL1        0.0863
     28 C         142.5611  137.8563  158.8386 C.ar    1  UNL1        0.0308
     29 C         142.8017  138.4707  160.1856 C.ar    1  UNL1        0.0643
     30 CL        144.0935  138.2182  160.9052 Cl      1  UNL1       -0.0820
     31 C         141.7507  139.3377  160.8131 C.ar    1  UNL1        0.0745
     32 C         140.4590  139.5902  160.0936 C.ar    1  UNL1        0.0643
     33 CL        139.4080  140.4572  160.7211 Cl      1  UNL1       -0.0820
     34 C         140.2184  138.9758  158.7466 C.ar    1  UNL1        0.0308
     35 C         142.0701  135.8408  153.4184 C.3     1  UNL1        0.0756
     36 C         141.3967  136.4519  154.6113 C.ar    1  UNL1        0.1613
     37 N         139.9196  136.6459  154.7868 N.ar    1  UNL1       -0.2073
     38 C         139.6922  137.2902  156.1221 C.ar    1  UNL1        0.2013
     39 N         141.0287  137.4944  156.7720 N.ar    1  UNL1       -0.2083
     40 N         142.0821  136.9763  155.8382 N.ar    1  UNL1       -0.1487
@<TRIPOS>BOND
     1    35    36    1
     2    36    37   ar
     3    37    38   ar
     4    38    39   ar
     5    39    27    1
     6    27    28   ar
     7    28    29   ar
     8    29    30    1
     9    29    31   ar
    10    31    23    1
    11    23    24    2
    12    23    25   am
    13    25    22    1
    14     1    22    1
    15     1    15    1
    16    15    16   ar
    17    16    17   ar
    18    17    18   ar
    19    18    19   ar
    20    19    20    1
    21    19    21   ar
    22     1     2    1
    23     2     3    1
    24     3     4    2
    25     4     5    1
    26     5     6    1
    27     5     7    1
    28     7     8    2
    29     8     9    1
    30     9    10    1
    31     9    11    2
    32    11    12    1
    33    12    13    2
    34    12    14    1
    35    31    32   ar
    36    32    33    1
    37    32    34   ar
    38    39    40   ar
    39    40    36   ar
    40    34    27   ar
    41    21    15   ar
    42    14     2    2
    43    11     4    1
    44    25    26    1
