@<TRIPOS>MOLECULE
*****
 35 39 0 0 0
SMALL
GASTEIGER

@<TRIPOS>ATOM
      1 N         138.0682  140.5957  162.5856 N.3     1  UNL1       -0.2712
      2 C         137.0886  141.5313  163.2298 C.3     1  UNL1        0.0738
      3 C         137.8619  142.6569  163.8503 C.3     1  UNL1        0.0372
      4 C         137.7344  143.9307  164.6320 C.3     1  UNL1        0.0245
      5 C         139.1131  144.4782  164.8544 C.3     1  UNL1        0.0909
      6 N         140.0928  143.5426  164.2101 N.pl3   1  UNL1       -0.3076
      7 C         139.3195  142.4170  163.5896 C.3     1  UNL1        0.0901
      8 C         139.4470  141.1431  162.8080 C.3     1  UNL1        0.0921
      9 C         141.5839  143.7042  164.1899 C.ar    1  UNL1        0.0509
     10 C         142.1886  145.0558  163.9500 C.ar    1  UNL1        0.0147
     11 C         143.6797  145.2174  163.9298 C.ar    1  UNL1        0.0044
     12 C         144.5662  144.0275  164.1496 C.ar    1  UNL1        0.0373
     13 C         143.9615  142.6759  164.3895 C.ar    1  UNL1        0.1480
     14 C         142.4704  142.5142  164.4097 C.ar    1  UNL1        0.0517
     15 O         144.8479  141.4860  164.6093 O.3     1  UNL1       -0.4044
     16 C         144.7935  140.3249  163.6612 C.3     1  UNL1        0.5753
     17 F         144.7391  139.1638  162.7131 F       1  UNL1       -0.1328
     18 F         145.1311  139.3910  164.7855 F       1  UNL1       -0.1328
     19 F         144.4558  141.2587  162.5370 F       1  UNL1       -0.1328
     20 C         137.7288  139.3342  161.8485 C.3     1  UNL1        0.0731
     21 C         138.5078  138.0795  162.1107 C.3     1  UNL1        0.0294
     22 C         138.7821  137.6479  163.5209 C.3     1  UNL1        0.0666
     23 S         140.1959  137.4701  163.9893 S.3     1  UNL1       -0.0756
     24 C         138.4339  139.2569  166.0755 C.3     1  UNL1        0.1340
     25 N         139.9307  139.1667  166.0378 N.ar    1  UNL1       -0.2872
     26 C         140.7406  138.3454  165.0788 C.ar    1  UNL1        0.1933
     27 N         142.1909  138.5530  165.4007 N.ar    1  UNL1       -0.1221
     28 N         142.2773  139.5027  166.5586 N.ar    1  UNL1       -0.1266
     29 C         140.8805  139.8820  166.9524 C.ar    1  UNL1        0.1862
     30 C         140.5002  140.8131  168.0653 C.ar    1  UNL1        0.1362
     31 C         139.6807  140.3104  169.2167 C.ar    1  UNL1        0.1211
     32 N         139.3004  141.2414  170.3295 N.ar    1  UNL1       -0.2390
     33 C         139.7396  142.6752  170.2909 C.ar    1  UNL1        0.1195
     34 C         140.5592  143.1779  169.1396 C.ar    1  UNL1        0.1196
     35 N         140.9394  142.2467  168.0267 N.ar    1  UNL1       -0.2375
@<TRIPOS>BOND
     1    24    25    1
     2    25    26   ar
     3    26    23    1
     4    23    22    1
     5    22    21    1
     6    21    20    1
     7    20     1    1
     8     1     2    1
     9     2     3    1
    10     3     4    1
    11     4     5    1
    12     5     6    1
    13     6     9    1
    14     9    10   ar
    15    10    11   ar
    16    11    12   ar
    17    12    13   ar
    18    13    15    1
    19    15    16    1
    20    16    17    1
    21    16    18    1
    22    16    19    1
    23    13    14   ar
    24     6     7    1
    25     7     8    1
    26    26    27   ar
    27    27    28   ar
    28    28    29   ar
    29    29    30    1
    30    30    31   ar
    31    31    32   ar
    32    32    33   ar
    33    33    34   ar
    34    34    35   ar
    35    29    25   ar
    36    35    30   ar
    37     8     1    1
    38     7     3    1
    39    14     9   ar
@<TRIPOS>MOLECULE
*****
 35 39 0 0 0
SMALL
GASTEIGER

@<TRIPOS>ATOM
      1 N         143.9669  139.6858  162.2506 N.3     1  UNL1       -0.2712
      2 C         144.8170  140.9069  162.4409 C.3     1  UNL1        0.0738
      3 C         144.3938  141.5719  163.7172 C.3     1  UNL1        0.0372
      4 C         144.6577  142.7376  164.6236 C.3     1  UNL1        0.0245
      5 C         143.7092  142.6479  165.7822 C.3     1  UNL1        0.0909
      6 N         142.8591  141.4267  165.5918 N.pl3   1  UNL1       -0.3076
      7 C         143.2823  140.7617  164.3156 C.3     1  UNL1        0.0901
      8 C         143.0184  139.5960  163.4092 C.3     1  UNL1        0.0921
      9 C         141.7761  140.9536  166.5155 C.ar    1  UNL1        0.0509
     10 C         141.9522  141.0718  168.0004 C.ar    1  UNL1        0.0147
     11 C         140.8691  140.5987  168.9241 C.ar    1  UNL1        0.0044
     12 C         139.6100  140.0074  168.3629 C.ar    1  UNL1        0.0373
     13 C         139.4339  139.8892  166.8779 C.ar    1  UNL1        0.1480
     14 C         140.5169  140.3623  165.9542 C.ar    1  UNL1        0.0517
     15 O         138.1748  139.2979  166.3167 O.3     1  UNL1       -0.4044
     16 C         137.8335  137.8629  166.5896 C.3     1  UNL1        0.5753
     17 F         137.4923  136.4280  166.8625 F       1  UNL1       -0.1328
     18 F         136.8962  138.2930  167.6789 F       1  UNL1       -0.1328
     19 F         138.7709  137.4329  165.5004 F       1  UNL1       -0.1328
     20 C         144.0506  138.7233  161.1031 C.3     1  UNL1        0.0731
     21 C         142.8252  137.9849  160.6527 C.3     1  UNL1        0.0294
     22 C         142.1170  138.4018  159.3978 C.3     1  UNL1        0.0666
     23 S         140.6591  138.7519  159.4403 S.3     1  UNL1       -0.0756
     24 C         140.8461  141.9000  160.2796 C.3     1  UNL1        0.1340
     25 N         140.1584  140.8189  161.0595 N.ar    1  UNL1       -0.2872
     26 C         140.0725  139.3719  160.6738 C.ar    1  UNL1        0.1933
     27 N         139.2968  138.6537  161.7380 N.ar    1  UNL1       -0.1221
     28 N         138.9034  139.6568  162.7815 N.ar    1  UNL1       -0.1266
     29 C         139.4359  140.9950  162.3623 C.ar    1  UNL1        0.1862
     30 C         139.2742  142.2831  163.1137 C.ar    1  UNL1        0.1362
     31 C         137.9067  142.8632  163.3223 C.ar    1  UNL1        0.1211
     32 N         137.7450  144.1513  164.0738 N.ar    1  UNL1       -0.2390
     33 C         138.9510  144.8593  164.6166 C.ar    1  UNL1        0.1195
     34 C         140.3184  144.2792  164.4080 C.ar    1  UNL1        0.1196
     35 N         140.4800  142.9911  163.6565 N.ar    1  UNL1       -0.2375
@<TRIPOS>BOND
     1    24    25    1
     2    25    26   ar
     3    26    23    1
     4    23    22    1
     5    22    21    1
     6    21    20    1
     7    20     1    1
     8     1     2    1
     9     2     3    1
    10     3     4    1
    11     4     5    1
    12     5     6    1
    13     6     9    1
    14     9    10   ar
    15    10    11   ar
    16    11    12   ar
    17    12    13   ar
    18    13    15    1
    19    15    16    1
    20    16    17    1
    21    16    18    1
    22    16    19    1
    23    13    14   ar
    24     6     7    1
    25     7     8    1
    26    26    27   ar
    27    27    28   ar
    28    28    29   ar
    29    29    30    1
    30    30    31   ar
    31    31    32   ar
    32    32    33   ar
    33    33    34   ar
    34    34    35   ar
    35    29    25   ar
    36    35    30   ar
    37     8     1    1
    38     7     3    1
    39    14     9   ar
@<TRIPOS>MOLECULE
*****
 35 39 0 0 0
SMALL
GASTEIGER

@<TRIPOS>ATOM
      1 N         143.5279  141.4555  160.3568 N.3     1  UNL1       -0.2712
      2 C         144.5776  142.3996  160.8635 C.3     1  UNL1        0.0738
      3 C         143.9466  143.2810  161.9003 C.3     1  UNL1        0.0372
      4 C         144.2055  144.4092  162.8543 C.3     1  UNL1        0.0245
      5 C         142.9258  144.7072  163.5780 C.3     1  UNL1        0.0909
      6 N         141.8761  143.7630  163.0712 N.pl3   1  UNL1       -0.3076
      7 C         142.5070  142.8816  162.0344 C.3     1  UNL1        0.0901
      8 C         142.2482  141.7534  161.0805 C.3     1  UNL1        0.0921
      9 C         140.4464  143.7097  163.5222 C.ar    1  UNL1        0.0509
     10 C         139.9604  144.6477  164.5870 C.ar    1  UNL1        0.0147
     11 C         138.5308  144.5944  165.0379 C.ar    1  UNL1        0.0044
     12 C         137.5872  143.6030  164.4241 C.ar    1  UNL1        0.0373
     13 C         138.0732  142.6650  163.3592 C.ar    1  UNL1        0.1480
     14 C         139.5029  142.7183  162.9083 C.ar    1  UNL1        0.0517
     15 O         137.1297  141.6736  162.7454 O.3     1  UNL1       -0.4044
     16 C         137.5769  140.2623  162.5045 C.3     1  UNL1        0.5753
     17 F         138.0242  138.8509  162.2636 F       1  UNL1       -0.1328
     18 F         137.3562  140.4436  161.0319 F       1  UNL1       -0.1328
     19 F         137.7977  140.0809  163.9770 F       1  UNL1       -0.1328
     20 C         143.7235  140.3989  159.3102 C.3     1  UNL1        0.0731
     21 C         142.6544  139.3746  159.0695 C.3     1  UNL1        0.0294
     22 C         142.8138  137.9834  159.6073 C.3     1  UNL1        0.0666
     23 S         143.4048  137.7689  160.9691 S.3     1  UNL1       -0.0756
     24 C         144.1925  139.6716  163.5006 C.3     1  UNL1        0.1340
     25 N         142.9314  138.8722  163.3573 N.ar    1  UNL1       -0.2872
     26 C         142.5693  137.9976  162.1937 C.ar    1  UNL1        0.1933
     27 N         141.2250  137.3919  162.4696 N.ar    1  UNL1       -0.1221
     28 N         140.7563  137.8922  163.8038 N.ar    1  UNL1       -0.1266
     29 C         141.8108  138.8071  164.3525 C.ar    1  UNL1        0.1862
     30 C         141.7547  139.5299  165.6656 C.ar    1  UNL1        0.1362
     31 C         140.8931  140.7486  165.8147 C.ar    1  UNL1        0.1211
     32 N         140.8369  141.4714  167.1279 N.ar    1  UNL1       -0.2390
     33 C         141.6426  140.9754  168.2920 C.ar    1  UNL1        0.1195
     34 C         142.5042  139.7566  168.1429 C.ar    1  UNL1        0.1196
     35 N         142.5603  139.0339  166.8297 N.ar    1  UNL1       -0.2375
@<TRIPOS>BOND
     1    24    25    1
     2    25    26   ar
     3    26    23    1
     4    23    22    1
     5    22    21    1
     6    21    20    1
     7    20     1    1
     8     1     2    1
     9     2     3    1
    10     3     4    1
    11     4     5    1
    12     5     6    1
    13     6     9    1
    14     9    10   ar
    15    10    11   ar
    16    11    12   ar
    17    12    13   ar
    18    13    15    1
    19    15    16    1
    20    16    17    1
    21    16    18    1
    22    16    19    1
    23    13    14   ar
    24     6     7    1
    25     7     8    1
    26    26    27   ar
    27    27    28   ar
    28    28    29   ar
    29    29    30    1
    30    30    31   ar
    31    31    32   ar
    32    32    33   ar
    33    33    34   ar
    34    34    35   ar
    35    29    25   ar
    36    35    30   ar
    37     8     1    1
    38     7     3    1
    39    14     9   ar
@<TRIPOS>MOLECULE
*****
 35 39 0 0 0
SMALL
GASTEIGER

@<TRIPOS>ATOM
      1 N         141.3762  144.8613  162.8023 N.3     1  UNL1       -0.2712
      2 C         142.4213  145.2440  163.8078 C.3     1  UNL1        0.0738
      3 C         143.2894  144.0456  164.0532 C.3     1  UNL1        0.0372
      4 C         144.4718  143.5414  164.8262 C.3     1  UNL1        0.0245
      5 C         144.6940  142.1064  164.4501 C.3     1  UNL1        0.0909
      6 N         143.6487  141.7237  163.4446 N.pl3   1  UNL1       -0.3076
      7 C         142.7807  142.9221  163.1992 C.3     1  UNL1        0.0901
      8 C         141.5982  143.4263  162.4262 C.3     1  UNL1        0.0921
      9 C         143.4980  140.3786  162.7979 C.ar    1  UNL1        0.0509
     10 C         144.3283  140.0253  161.5997 C.ar    1  UNL1        0.0147
     11 C         144.1777  138.6802  160.9530 C.ar    1  UNL1        0.0044
     12 C         143.1967  137.6886  161.5045 C.ar    1  UNL1        0.0373
     13 C         142.3663  138.0419  162.7028 C.ar    1  UNL1        0.1480
     14 C         142.5170  139.3869  163.3495 C.ar    1  UNL1        0.0517
     15 O         141.3853  137.0502  163.2543 O.3     1  UNL1       -0.4044
     16 C         139.9569  137.4515  163.4750 C.3     1  UNL1        0.5753
     17 F         138.5285  137.8527  163.6956 F       1  UNL1       -0.1328
     18 F         140.1350  137.2723  164.9535 F       1  UNL1       -0.1328
     19 F         139.7789  137.6306  161.9964 F       1  UNL1       -0.1328
     20 C         140.2981  145.7564  162.2669 C.3     1  UNL1        0.0731
     21 C         138.8561  145.3881  162.4535 C.3     1  UNL1        0.0294
     22 C         138.4037  143.9793  162.2066 C.3     1  UNL1        0.0666
     23 S         137.8308  143.1678  163.3305 S.3     1  UNL1       -0.0756
     24 C         139.2061  144.6504  165.8917 C.3     1  UNL1        0.1340
     25 N         139.3754  143.2093  165.5116 N.ar    1  UNL1       -0.2872
     26 C         138.7433  142.5278  164.3344 C.ar    1  UNL1        0.1933
     27 N         139.1838  141.0939  164.3372 N.ar    1  UNL1       -0.1221
     28 N         140.0882  140.8892  165.5162 N.ar    1  UNL1       -0.1266
     29 C         140.2067  142.1965  166.2421 C.ar    1  UNL1        0.1862
     30 C         141.0145  142.4472  167.4809 C.ar    1  UNL1        0.1362
     31 C         142.4924  142.1908  167.4772 C.ar    1  UNL1        0.1211
     32 N         143.3003  142.4414  168.7160 N.ar    1  UNL1       -0.2390
     33 C         142.6301  142.9484  169.9585 C.ar    1  UNL1        0.1195
     34 C         141.1521  143.2048  169.9623 C.ar    1  UNL1        0.1196
     35 N         140.3444  142.9541  168.7234 N.ar    1  UNL1       -0.2375
@<TRIPOS>BOND
     1    24    25    1
     2    25    26   ar
     3    26    23    1
     4    23    22    1
     5    22    21    1
     6    21    20    1
     7    20     1    1
     8     1     2    1
     9     2     3    1
    10     3     4    1
    11     4     5    1
    12     5     6    1
    13     6     9    1
    14     9    10   ar
    15    10    11   ar
    16    11    12   ar
    17    12    13   ar
    18    13    15    1
    19    15    16    1
    20    16    17    1
    21    16    18    1
    22    16    19    1
    23    13    14   ar
    24     6     7    1
    25     7     8    1
    26    26    27   ar
    27    27    28   ar
    28    28    29   ar
    29    29    30    1
    30    30    31   ar
    31    31    32   ar
    32    32    33   ar
    33    33    34   ar
    34    34    35   ar
    35    29    25   ar
    36    35    30   ar
    37     8     1    1
    38     7     3    1
    39    14     9   ar
@<TRIPOS>MOLECULE
*****
 35 39 0 0 0
SMALL
GASTEIGER

@<TRIPOS>ATOM
      1 N         140.9242  144.4463  161.8953 N.3     1  UNL1       -0.2712
      2 C         139.8297  145.2238  162.5643 C.3     1  UNL1        0.0738
      3 C         139.6595  144.6834  163.9531 C.3     1  UNL1        0.0372
      4 C         138.8778  144.8299  165.2250 C.3     1  UNL1        0.0245
      5 C         139.3840  143.8090  166.2005 C.3     1  UNL1        0.0909
      6 N         140.4785  143.0314  165.5314 N.pl3   1  UNL1       -0.3076
      7 C         140.6487  143.5719  164.1426 C.3     1  UNL1        0.0901
      8 C         141.4304  143.4253  162.8707 C.3     1  UNL1        0.0921
      9 C         141.2647  141.9103  166.1438 C.ar    1  UNL1        0.0509
     10 C         141.5691  140.6812  165.3398 C.ar    1  UNL1        0.0147
     11 C         142.3553  139.5601  165.9522 C.ar    1  UNL1        0.0044
     12 C         142.8371  139.6681  167.3686 C.ar    1  UNL1        0.0373
     13 C         142.5327  140.8973  168.1726 C.ar    1  UNL1        0.1480
     14 C         141.7465  142.0184  167.5603 C.ar    1  UNL1        0.0517
     15 O         143.0145  141.0054  169.5890 O.3     1  UNL1       -0.4044
     16 C         143.1699  142.3538  170.2276 C.3     1  UNL1        0.5753
     17 F         143.3252  143.7021  170.8662 F       1  UNL1       -0.1328
     18 F         144.4853  142.5329  169.5293 F       1  UNL1       -0.1328
     19 F         141.8544  142.1746  170.9258 F       1  UNL1       -0.1328
     20 C         141.4246  144.6533  160.4965 C.3     1  UNL1        0.0731
     21 C         140.4594  144.6637  159.3484 C.3     1  UNL1        0.0294
     22 C         140.3123  143.4488  158.4810 C.3     1  UNL1        0.0666
     23 S         139.1545  142.5173  158.6850 S.3     1  UNL1       -0.0756
     24 C         139.9885  139.9127  160.4656 C.3     1  UNL1        0.1340
     25 N         139.0596  141.0109  160.8912 N.ar    1  UNL1       -0.2872
     26 C         138.6763  142.2081  160.0728 C.ar    1  UNL1        0.1933
     27 N         137.7308  143.0419  160.8856 N.ar    1  UNL1       -0.1221
     28 N         137.5297  142.3600  162.2065 N.ar    1  UNL1       -0.1266
     29 C         138.3510  141.1048  162.2100 C.ar    1  UNL1        0.1862
     30 C         138.4468  140.1169  163.3347 C.ar    1  UNL1        0.1362
     31 C         138.0516  140.5215  164.7240 C.ar    1  UNL1        0.1211
     32 N         138.1474  139.5336  165.8487 N.ar    1  UNL1       -0.2390
     33 C         138.6384  138.1411  165.5839 C.ar    1  UNL1        0.1195
     34 C         139.0336  137.7365  164.1946 C.ar    1  UNL1        0.1196
     35 N         138.9377  138.7245  163.0700 N.ar    1  UNL1       -0.2375
@<TRIPOS>BOND
     1    24    25    1
     2    25    26   ar
     3    26    23    1
     4    23    22    1
     5    22    21    1
     6    21    20    1
     7    20     1    1
     8     1     2    1
     9     2     3    1
    10     3     4    1
    11     4     5    1
    12     5     6    1
    13     6     9    1
    14     9    10   ar
    15    10    11   ar
    16    11    12   ar
    17    12    13   ar
    18    13    15    1
    19    15    16    1
    20    16    17    1
    21    16    18    1
    22    16    19    1
    23    13    14   ar
    24     6     7    1
    25     7     8    1
    26    26    27   ar
    27    27    28   ar
    28    28    29   ar
    29    29    30    1
    30    30    31   ar
    31    31    32   ar
    32    32    33   ar
    33    33    34   ar
    34    34    35   ar
    35    29    25   ar
    36    35    30   ar
    37     8     1    1
    38     7     3    1
    39    14     9   ar
@<TRIPOS>MOLECULE
*****
 35 39 0 0 0
SMALL
GASTEIGER

@<TRIPOS>ATOM
      1 N         140.6624  144.6304  162.3900 N.3     1  UNL1       -0.2712
      2 C         142.0564  144.8323  162.9056 C.3     1  UNL1        0.0738
      3 C         142.2837  143.8560  164.0215 C.3     1  UNL1        0.0372
      4 C         143.2858  143.3774  165.0298 C.3     1  UNL1        0.0245
      5 C         142.6517  142.2762  165.8269 C.3     1  UNL1        0.0909
      6 N         141.2576  142.0744  165.3112 N.pl3   1  UNL1       -0.3076
      7 C         141.0303  143.0507  164.1954 C.3     1  UNL1        0.0901
      8 C         140.0282  143.5293  163.1871 C.3     1  UNL1        0.0921
      9 C         140.2652  141.0721  165.8217 C.ar    1  UNL1        0.0509
     10 C         139.4099  140.3052  164.8572 C.ar    1  UNL1        0.0147
     11 C         138.4175  139.3030  165.3678 C.ar    1  UNL1        0.0044
     12 C         138.2804  139.0676  166.8428 C.ar    1  UNL1        0.0373
     13 C         139.1357  139.8345  167.8074 C.ar    1  UNL1        0.1480
     14 C         140.1281  140.8368  167.2969 C.ar    1  UNL1        0.0517
     15 O         138.9986  139.5991  169.2824 O.3     1  UNL1       -0.4044
     16 C         139.8180  140.4014  170.2493 C.3     1  UNL1        0.5753
     17 F         140.6375  141.2036  171.2162 F       1  UNL1       -0.1328
     18 F         140.8453  139.3090  170.2850 F       1  UNL1       -0.1328
     19 F         138.7908  141.4938  170.2135 F       1  UNL1       -0.1328
     20 C         140.0160  145.3954  161.2733 C.3     1  UNL1        0.0731
     21 C         140.6472  145.4132  159.9127 C.3     1  UNL1        0.0294
     22 C         140.1999  144.4368  158.8654 C.3     1  UNL1        0.0666
     23 S         141.0370  143.2307  158.5580 S.3     1  UNL1       -0.0756
     24 C         140.6991  140.9842  160.9008 C.3     1  UNL1        0.1340
     25 N         141.9465  141.7596  160.5961 N.ar    1  UNL1       -0.2872
     26 C         142.1018  142.7922  159.5192 C.ar    1  UNL1        0.1933
     27 N         143.5089  143.3093  159.5722 N.ar    1  UNL1       -0.1221
     28 N         144.2232  142.5963  160.6819 N.ar    1  UNL1       -0.1266
     29 C         143.2576  141.6385  161.3147 C.ar    1  UNL1        0.1862
     30 C         143.5516  140.7207  162.4642 C.ar    1  UNL1        0.1362
     31 C         144.8876  140.7743  163.1440 C.ar    1  UNL1        0.1211
     32 N         145.1816  139.8566  164.2935 N.ar    1  UNL1       -0.2390
     33 C         144.1394  138.8853  164.7632 C.ar    1  UNL1        0.1195
     34 C         142.8033  138.8317  164.0834 C.ar    1  UNL1        0.1196
     35 N         142.5095  139.7495  162.9339 N.ar    1  UNL1       -0.2375
@<TRIPOS>BOND
     1    24    25    1
     2    25    26   ar
     3    26    23    1
     4    23    22    1
     5    22    21    1
     6    21    20    1
     7    20     1    1
     8     1     2    1
     9     2     3    1
    10     3     4    1
    11     4     5    1
    12     5     6    1
    13     6     9    1
    14     9    10   ar
    15    10    11   ar
    16    11    12   ar
    17    12    13   ar
    18    13    15    1
    19    15    16    1
    20    16    17    1
    21    16    18    1
    22    16    19    1
    23    13    14   ar
    24     6     7    1
    25     7     8    1
    26    26    27   ar
    27    27    28   ar
    28    28    29   ar
    29    29    30    1
    30    30    31   ar
    31    31    32   ar
    32    32    33   ar
    33    33    34   ar
    34    34    35   ar
    35    29    25   ar
    36    35    30   ar
    37     8     1    1
    38     7     3    1
    39    14     9   ar
@<TRIPOS>MOLECULE
*****
 35 39 0 0 0
SMALL
GASTEIGER

@<TRIPOS>ATOM
      1 N         142.5116  138.8464  163.5946 N.3     1  UNL1       -0.2712
      2 C         141.3416  138.0288  163.1334 C.3     1  UNL1        0.0738
      3 C         140.2536  138.1577  164.1579 C.3     1  UNL1        0.0372
      4 C         138.8581  137.7320  164.5061 C.3     1  UNL1        0.0245
      5 C         138.4931  138.3660  165.8156 C.3     1  UNL1        0.0909
      6 N         139.6632  139.1836  166.2767 N.pl3   1  UNL1       -0.3076
      7 C         140.7512  139.0548  165.2522 C.3     1  UNL1        0.0901
      8 C         142.1467  139.4805  164.9041 C.3     1  UNL1        0.0921
      9 C         139.7329  139.9887  167.5405 C.ar    1  UNL1        0.0509
     10 C         138.7807  139.7047  168.6642 C.ar    1  UNL1        0.0147
     11 C         138.8505  140.5097  169.9279 C.ar    1  UNL1        0.0044
     12 C         139.8724  141.5987  170.0680 C.ar    1  UNL1        0.0373
     13 C         140.8246  141.8828  168.9443 C.ar    1  UNL1        0.1480
     14 C         140.7549  141.0778  167.6805 C.ar    1  UNL1        0.0517
     15 O         141.8466  142.9718  169.0844 O.3     1  UNL1       -0.4044
     16 C         143.2353  142.6423  169.5458 C.3     1  UNL1        0.5753
     17 F         144.6240  142.3129  170.0072 F       1  UNL1       -0.1328
     18 F         143.6965  142.5889  168.1194 F       1  UNL1       -0.1328
     19 F         142.7741  142.6958  170.9721 F       1  UNL1       -0.1328
     20 C         143.8173  139.0025  162.8729 C.3     1  UNL1        0.0731
     21 C         143.9539  138.5246  161.4577 C.3     1  UNL1        0.0294
     22 C         144.0974  139.5165  160.3416 C.3     1  UNL1        0.0666
     23 S         142.9065  139.8835  159.5067 S.3     1  UNL1       -0.0756
     24 C         142.3238  142.3491  161.5636 C.3     1  UNL1        0.1340
     25 N         141.3267  141.3239  161.1113 N.ar    1  UNL1       -0.2872
     26 C         141.5945  140.1906  160.1658 C.ar    1  UNL1        0.1933
     27 N         140.3200  139.4182  159.9952 N.ar    1  UNL1       -0.1221
     28 N         139.2645  140.0741  160.8352 N.ar    1  UNL1       -0.1266
     29 C         139.8866  141.2519  161.5250 C.ar    1  UNL1        0.1862
     30 C         139.1908  142.1926  162.4637 C.ar    1  UNL1        0.1362
     31 C         139.0498  141.8370  163.9140 C.ar    1  UNL1        0.1211
     32 N         138.3540  142.7776  164.8527 N.ar    1  UNL1       -0.2390
     33 C         137.7993  144.0739  164.3409 C.ar    1  UNL1        0.1195
     34 C         137.9403  144.4296  162.8905 C.ar    1  UNL1        0.1196
     35 N         138.6361  143.4888  161.9519 N.ar    1  UNL1       -0.2375
@<TRIPOS>BOND
     1    24    25    1
     2    25    26   ar
     3    26    23    1
     4    23    22    1
     5    22    21    1
     6    21    20    1
     7    20     1    1
     8     1     2    1
     9     2     3    1
    10     3     4    1
    11     4     5    1
    12     5     6    1
    13     6     9    1
    14     9    10   ar
    15    10    11   ar
    16    11    12   ar
    17    12    13   ar
    18    13    15    1
    19    15    16    1
    20    16    17    1
    21    16    18    1
    22    16    19    1
    23    13    14   ar
    24     6     7    1
    25     7     8    1
    26    26    27   ar
    27    27    28   ar
    28    28    29   ar
    29    29    30    1
    30    30    31   ar
    31    31    32   ar
    32    32    33   ar
    33    33    34   ar
    34    34    35   ar
    35    29    25   ar
    36    35    30   ar
    37     8     1    1
    38     7     3    1
    39    14     9   ar
@<TRIPOS>MOLECULE
*****
 35 39 0 0 0
SMALL
GASTEIGER

@<TRIPOS>ATOM
      1 N         141.6482  142.4485  161.0288 N.3     1  UNL1       -0.2712
      2 C         142.4904  143.6883  161.0881 C.3     1  UNL1        0.0738
      3 C         143.0938  143.7736  162.4587 C.3     1  UNL1        0.0372
      4 C         143.9872  144.5926  163.3424 C.3     1  UNL1        0.0245
      5 C         144.0701  143.9118  164.6765 C.3     1  UNL1        0.0909
      6 N         143.2278  142.6720  164.6172 N.pl3   1  UNL1       -0.3076
      7 C         142.6244  142.5866  163.2465 C.3     1  UNL1        0.0901
      8 C         141.7310  141.7676  162.3628 C.3     1  UNL1        0.0921
      9 C         143.0246  141.6900  165.7327 C.ar    1  UNL1        0.0509
     10 C         143.2793  140.2299  165.5023 C.ar    1  UNL1        0.0147
     11 C         143.0761  139.2478  166.6178 C.ar    1  UNL1        0.0044
     12 C         142.6181  139.7259  167.9637 C.ar    1  UNL1        0.0373
     13 C         142.3634  141.1861  168.1942 C.ar    1  UNL1        0.1480
     14 C         142.5666  142.1681  167.0787 C.ar    1  UNL1        0.0517
     15 O         141.9054  141.6642  169.5402 O.3     1  UNL1       -0.4044
     16 C         141.2305  142.9972  169.6729 C.3     1  UNL1        0.5753
     17 F         140.5556  144.3302  169.8056 F       1  UNL1       -0.1328
     18 F         139.9763  142.4206  169.0860 F       1  UNL1       -0.1328
     19 F         142.4847  143.5738  170.2598 F       1  UNL1       -0.1328
     20 C         140.8612  141.9730  159.8436 C.3     1  UNL1        0.0731
     21 C         141.2876  140.7381  159.1067 C.3     1  UNL1        0.0294
     22 C         140.2594  139.8575  158.4606 C.3     1  UNL1        0.0666
     23 S         139.7514  138.6442  159.1815 S.3     1  UNL1       -0.0756
     24 C         137.9103  139.6625  161.6760 C.3     1  UNL1        0.1340
     25 N         139.2105  138.9225  161.7843 N.ar    1  UNL1       -0.2872
     26 C         140.0568  138.4544  160.6377 C.ar    1  UNL1        0.1933
     27 N         141.2621  137.7632  161.2030 N.ar    1  UNL1       -0.1221
     28 N         141.1608  137.8041  162.6990 N.ar    1  UNL1       -0.1266
     29 C         139.8928  138.5206  163.0584 C.ar    1  UNL1        0.1862
     30 C         139.3947  138.7882  164.4477 C.ar    1  UNL1        0.1362
     31 C         139.7421  140.0759  165.1341 C.ar    1  UNL1        0.1211
     32 N         139.2439  140.3434  166.5234 N.ar    1  UNL1       -0.2390
     33 C         138.3983  139.3232  167.2263 C.ar    1  UNL1        0.1195
     34 C         138.0508  138.0355  166.5400 C.ar    1  UNL1        0.1196
     35 N         138.5491  137.7680  165.1506 N.ar    1  UNL1       -0.2375
@<TRIPOS>BOND
     1    24    25    1
     2    25    26   ar
     3    26    23    1
     4    23    22    1
     5    22    21    1
     6    21    20    1
     7    20     1    1
     8     1     2    1
     9     2     3    1
    10     3     4    1
    11     4     5    1
    12     5     6    1
    13     6     9    1
    14     9    10   ar
    15    10    11   ar
    16    11    12   ar
    17    12    13   ar
    18    13    15    1
    19    15    16    1
    20    16    17    1
    21    16    18    1
    22    16    19    1
    23    13    14   ar
    24     6     7    1
    25     7     8    1
    26    26    27   ar
    27    27    28   ar
    28    28    29   ar
    29    29    30    1
    30    30    31   ar
    31    31    32   ar
    32    32    33   ar
    33    33    34   ar
    34    34    35   ar
    35    29    25   ar
    36    35    30   ar
    37     8     1    1
    38     7     3    1
    39    14     9   ar
@<TRIPOS>MOLECULE
*****
 35 39 0 0 0
SMALL
GASTEIGER

@<TRIPOS>ATOM
      1 N         144.1913  141.5885  163.7706 N.3     1  UNL1       -0.2712
      2 C         144.4900  140.5263  162.7545 C.3     1  UNL1        0.0738
      3 C         143.4680  139.4390  162.9065 C.3     1  UNL1        0.0372
      4 C         143.0209  138.1104  162.3725 C.3     1  UNL1        0.0245
      5 C         141.8142  137.6796  163.1525 C.3     1  UNL1        0.0909
      6 N         141.5155  138.7419  164.1686 N.pl3   1  UNL1       -0.3076
      7 C         142.5376  139.8292  164.0166 C.3     1  UNL1        0.0901
      8 C         142.9847  141.1577  164.5506 C.3     1  UNL1        0.0921
      9 C         140.3920  138.7206  165.1622 C.ar    1  UNL1        0.0509
     10 C         139.2632  137.7466  164.9972 C.ar    1  UNL1        0.0147
     11 C         138.1397  137.7253  165.9909 C.ar    1  UNL1        0.0044
     12 C         138.1450  138.6780  167.1494 C.ar    1  UNL1        0.0373
     13 C         139.2738  139.6520  167.3145 C.ar    1  UNL1        0.1480
     14 C         140.3973  139.6733  166.3209 C.ar    1  UNL1        0.0517
     15 O         139.2790  140.6047  168.4731 O.3     1  UNL1       -0.4044
     16 C         139.4626  140.0870  169.8689 C.3     1  UNL1        0.5753
     17 F         139.6461  139.5693  171.2647 F       1  UNL1       -0.1328
     18 F         140.7978  139.5222  169.4838 F       1  UNL1       -0.1328
     19 F         138.1274  140.6518  170.2539 F       1  UNL1       -0.1328
     20 C         144.9637  142.8586  163.9714 C.3     1  UNL1        0.0731
     21 C         144.2823  144.0693  164.5370 C.3     1  UNL1        0.0294
     22 C         143.7070  145.1047  163.6167 C.3     1  UNL1        0.0666
     23 S         142.2294  145.3630  163.6085 S.3     1  UNL1       -0.0756
     24 C         141.8581  143.1018  161.2849 C.3     1  UNL1        0.1340
     25 N         141.0963  143.1737  162.5750 N.ar    1  UNL1       -0.2872
     26 C         141.2669  144.2130  163.6430 C.ar    1  UNL1        0.1933
     27 N         140.3062  143.9005  164.7518 N.ar    1  UNL1       -0.1221
     28 N         139.5417  142.6680  164.3690 N.ar    1  UNL1       -0.1266
     29 C         140.0300  142.2188  163.0237 C.ar    1  UNL1        0.1862
     30 C         139.5383  141.0244  162.2610 C.ar    1  UNL1        0.1362
     31 C         140.3366  140.4893  161.1093 C.ar    1  UNL1        0.1211
     32 N         139.8449  139.2949  160.3466 N.ar    1  UNL1       -0.2390
     33 C         138.5549  138.6356  160.7357 C.ar    1  UNL1        0.1195
     34 C         137.7566  139.1707  161.8873 C.ar    1  UNL1        0.1196
     35 N         138.2483  140.3652  162.6500 N.ar    1  UNL1       -0.2375
@<TRIPOS>BOND
     1    24    25    1
     2    25    26   ar
     3    26    23    1
     4    23    22    1
     5    22    21    1
     6    21    20    1
     7    20     1    1
     8     1     2    1
     9     2     3    1
    10     3     4    1
    11     4     5    1
    12     5     6    1
    13     6     9    1
    14     9    10   ar
    15    10    11   ar
    16    11    12   ar
    17    12    13   ar
    18    13    15    1
    19    15    16    1
    20    16    17    1
    21    16    18    1
    22    16    19    1
    23    13    14   ar
    24     6     7    1
    25     7     8    1
    26    26    27   ar
    27    27    28   ar
    28    28    29   ar
    29    29    30    1
    30    30    31   ar
    31    31    32   ar
    32    32    33   ar
    33    33    34   ar
    34    34    35   ar
    35    29    25   ar
    36    35    30   ar
    37     8     1    1
    38     7     3    1
    39    14     9   ar
