@<TRIPOS>MOLECULE
*****
 28 30 0 0 0
SMALL
GASTEIGER

@<TRIPOS>ATOM
      1 C         139.5064  143.6545  163.8683 C.2     1  UNL1        0.2266
      2 O         138.4752  144.7429  163.9135 O.2     1  UNL1       -0.2748
      3 N         140.4340  143.5485  162.6943 N.am    1  UNL1       -0.2760
      4 C         141.4652  142.4601  162.6490 C.3     1  UNL1        0.1150
      5 C         142.3928  142.3542  161.4749 C.3     1  UNL1        0.1165
      6 N         142.2892  143.3366  160.3462 N.am    1  UNL1       -0.2605
      7 C         143.2168  143.2306  159.1722 C.2     1  UNL1        0.3078
      8 O         143.1133  144.2131  158.0434 O.2     1  UNL1       -0.2522
      9 N         144.2480  142.1422  159.1269 N.am    1  UNL1       -0.2681
     10 C         141.2580  144.4250  160.3915 C.3     1  UNL1        0.1165
     11 C         140.3305  144.5310  161.5655 C.3     1  UNL1        0.1150
     12 H         144.3160  141.4974  159.8678 H       1  UNL1        0.1564
     13 C         145.1756  142.0363  157.9529 C.ar    1  UNL1        0.0525
     14 C         146.4346  142.8509  157.9159 C.ar    1  UNL1        0.0156
     15 C         147.3622  142.7450  156.7419 C.ar    1  UNL1        0.0135
     16 C         147.0308  141.8245  155.6049 C.ar    1  UNL1        0.0683
     17 CL        147.9584  141.7185  154.4308 Cl      1  UNL1       -0.0814
     18 C         145.7718  141.0098  155.6419 C.ar    1  UNL1        0.0694
     19 CL        145.4405  140.0892  154.5049 Cl      1  UNL1       -0.0813
     20 C         144.8442  141.1157  156.8159 C.ar    1  UNL1        0.0270
     21 N         139.0223  140.3618  166.0301 N.3     1  UNL1       -0.2723
     22 C         139.8170  140.7071  167.2545 C.3     1  UNL1        0.0721
     23 C         140.5082  142.0350  167.3501 C.3     1  UNL1        0.0179
     24 C         140.4046  143.0174  166.2214 C.3     1  UNL1        0.0119
     25 C         139.6100  142.6720  164.9971 C.3     1  UNL1        0.0927
     26 C         138.9188  141.3442  164.9014 C.3     1  UNL1        0.0812
     27 C         137.5808  138.4922  167.1149 C.3     1  UNL1        0.0188
     28 C         138.3311  139.0339  165.9344 C.3     1  UNL1        0.0721
@<TRIPOS>BOND
     1    27    28    1
     2    28    21    1
     3    21    22    1
     4    22    23    1
     5    23    24    1
     6    24    25    1
     7    25     1    1
     8     1     2    2
     9     1     3   am
    10     3     4    1
    11     4     5    1
    12     5     6    1
    13     6     7   am
    14     7     8    2
    15     7     9   am
    16     9    13    1
    17    13    14   ar
    18    14    15   ar
    19    15    16   ar
    20    16    17    1
    21    16    18   ar
    22    18    19    1
    23    18    20   ar
    24     6    10    1
    25    10    11    1
    26    25    26    1
    27    26    21    1
    28    11     3    1
    29    20    13   ar
    30     9    12    1
@<TRIPOS>MOLECULE
*****
 28 30 0 0 0
SMALL
GASTEIGER

@<TRIPOS>ATOM
      1 C         143.3316  143.3813  162.5694 C.2     1  UNL1        0.2266
      2 O         144.2771  144.5393  162.4479 O.2     1  UNL1       -0.2748
      3 N         143.2548  142.3577  161.4757 N.am    1  UNL1       -0.2760
      4 C         142.3092  141.1996  161.5972 C.3     1  UNL1        0.1150
      5 C         142.2325  140.1761  160.5033 C.3     1  UNL1        0.1165
      6 N         143.1014  140.3106  159.2880 N.am    1  UNL1       -0.2605
      7 C         143.0246  139.2870  158.1942 C.2     1  UNL1        0.3078
      8 O         143.8935  139.4215  156.9789 O.2     1  UNL1       -0.2522
      9 N         142.0790  138.1290  158.3157 N.am    1  UNL1       -0.2681
     10 C         144.0469  141.4686  159.1665 C.3     1  UNL1        0.1165
     11 C         144.1237  142.4922  160.2603 C.3     1  UNL1        0.1150
     12 H         141.5088  138.0407  159.1134 H       1  UNL1        0.1564
     13 C         142.0023  137.1054  157.2219 C.ar    1  UNL1        0.0525
     14 C         140.9275  137.2003  156.1799 C.ar    1  UNL1        0.0156
     15 C         140.8507  136.1768  155.0861 C.ar    1  UNL1        0.0135
     16 C         141.8488  135.0584  155.0342 C.ar    1  UNL1        0.0683
     17 CL        141.7721  134.0348  153.9403 Cl      1  UNL1       -0.0814
     18 C         142.9237  134.9634  156.0762 C.ar    1  UNL1        0.0694
     19 CL        143.9219  133.8449  156.0242 Cl      1  UNL1       -0.0813
     20 C         143.0004  135.9869  157.1700 C.ar    1  UNL1        0.0270
     21 N         140.2947  143.8579  165.0795 N.3     1  UNL1       -0.2723
     22 C         140.7250  142.9779  166.2154 C.3     1  UNL1        0.0721
     23 C         142.0241  142.2323  166.1360 C.3     1  UNL1        0.0179
     24 C         142.8930  142.3667  164.9207 C.3     1  UNL1        0.0119
     25 C         142.4627  143.2468  163.7848 C.3     1  UNL1        0.0927
     26 C         141.1635  143.9924  163.8642 C.3     1  UNL1        0.0812
     27 C         137.7588  144.0235  164.5393 C.3     1  UNL1        0.0188
     28 C         138.9956  144.6035  165.1589 C.3     1  UNL1        0.0721
@<TRIPOS>BOND
     1    27    28    1
     2    28    21    1
     3    21    22    1
     4    22    23    1
     5    23    24    1
     6    24    25    1
     7    25     1    1
     8     1     2    2
     9     1     3   am
    10     3     4    1
    11     4     5    1
    12     5     6    1
    13     6     7   am
    14     7     8    2
    15     7     9   am
    16     9    13    1
    17    13    14   ar
    18    14    15   ar
    19    15    16   ar
    20    16    17    1
    21    16    18   ar
    22    18    19    1
    23    18    20   ar
    24     6    10    1
    25    10    11    1
    26    25    26    1
    27    26    21    1
    28    11     3    1
    29    20    13   ar
    30     9    12    1
@<TRIPOS>MOLECULE
*****
 28 30 0 0 0
SMALL
GASTEIGER

@<TRIPOS>ATOM
      1 C         142.8980  143.7785  162.4886 C.2     1  UNL1        0.2266
      2 O         143.9727  144.8249  162.4897 O.2     1  UNL1       -0.2748
      3 N         142.9030  142.6994  161.4468 N.am    1  UNL1       -0.2760
      4 C         141.8282  141.6530  161.4457 C.3     1  UNL1        0.1150
      5 C         141.8333  140.5738  160.4039 C.3     1  UNL1        0.1165
      6 N         142.9130  140.5410  159.3632 N.am    1  UNL1       -0.2605
      7 C         142.9180  139.4618  158.3215 C.2     1  UNL1        0.3078
      8 O         143.9978  139.4290  157.2807 O.2     1  UNL1       -0.2522
      9 N         141.8433  138.4154  158.3204 N.am    1  UNL1       -0.2681
     10 C         143.9878  141.5874  159.3643 C.3     1  UNL1        0.1165
     11 C         143.9828  142.6665  160.4061 C.3     1  UNL1        0.1150
     12 H         141.1346  138.4369  159.0034 H       1  UNL1        0.1564
     13 C         141.8483  137.3362  157.2785 C.ar    1  UNL1        0.0525
     14 C         140.8376  137.3588  156.1704 C.ar    1  UNL1        0.0156
     15 C         140.8426  136.2797  155.1286 C.ar    1  UNL1        0.0135
     16 C         141.8583  135.1780  155.1949 C.ar    1  UNL1        0.0683
     17 CL        141.8633  134.0988  154.1531 Cl      1  UNL1       -0.0814
     18 C         142.8690  135.1553  156.3030 C.ar    1  UNL1        0.0694
     19 CL        143.8847  134.0535  156.3693 Cl      1  UNL1       -0.0813
     20 C         142.8640  136.2345  157.3448 C.ar    1  UNL1        0.0270
     21 N         140.8950  143.0584  165.8382 N.3     1  UNL1       -0.2723
     22 C         139.6588  143.8769  165.6108 C.3     1  UNL1        0.0721
     23 C         139.5023  144.6627  164.3427 C.3     1  UNL1        0.0179
     24 C         140.5820  144.6299  163.3020 C.3     1  UNL1        0.0119
     25 C         141.8182  143.8113  163.5294 C.3     1  UNL1        0.0927
     26 C         141.9747  143.0256  164.7975 C.3     1  UNL1        0.0812
     27 C         140.5452  142.8322  168.4026 C.3     1  UNL1        0.0188
     28 C         141.0515  142.2727  167.1063 C.3     1  UNL1        0.0721
@<TRIPOS>BOND
     1    27    28    1
     2    28    21    1
     3    21    22    1
     4    22    23    1
     5    23    24    1
     6    24    25    1
     7    25     1    1
     8     1     2    2
     9     1     3   am
    10     3     4    1
    11     4     5    1
    12     5     6    1
    13     6     7   am
    14     7     8    2
    15     7     9   am
    16     9    13    1
    17    13    14   ar
    18    14    15   ar
    19    15    16   ar
    20    16    17    1
    21    16    18   ar
    22    18    19    1
    23    18    20   ar
    24     6    10    1
    25    10    11    1
    26    25    26    1
    27    26    21    1
    28    11     3    1
    29    20    13   ar
    30     9    12    1
@<TRIPOS>MOLECULE
*****
 28 30 0 0 0
SMALL
GASTEIGER

@<TRIPOS>ATOM
      1 C         139.5357  143.6219  164.1552 C.2     1  UNL1        0.2266
      2 O         138.5355  144.7368  164.2372 O.2     1  UNL1       -0.2748
      3 N         140.4448  143.5160  162.9669 N.am    1  UNL1       -0.2760
      4 C         141.4450  142.4012  162.8848 C.3     1  UNL1        0.1150
      5 C         142.3542  142.2953  161.6964 C.3     1  UNL1        0.1165
      6 N         142.2632  143.3042  160.5902 N.am    1  UNL1       -0.2605
      7 C         143.1724  143.1982  159.4018 C.2     1  UNL1        0.3078
      8 O         143.0814  144.2072  158.2955 O.2     1  UNL1       -0.2522
      9 N         144.1726  142.0834  159.3198 N.am    1  UNL1       -0.2681
     10 C         141.2630  144.4190  160.6722 C.3     1  UNL1        0.1165
     11 C         140.3539  144.5249  161.8605 C.3     1  UNL1        0.1150
     12 H         144.2323  141.4212  160.0458 H       1  UNL1        0.1564
     13 C         145.0818  141.9775  158.1314 C.ar    1  UNL1        0.0525
     14 C         146.3222  142.8178  158.0588 C.ar    1  UNL1        0.0156
     15 C         147.2314  142.7119  156.8705 C.ar    1  UNL1        0.0135
     16 C         146.9002  141.7657  155.7548 C.ar    1  UNL1        0.0683
     17 CL        147.8094  141.6598  154.5664 Cl      1  UNL1       -0.0814
     18 C         145.6598  140.9254  155.8273 C.ar    1  UNL1        0.0694
     19 CL        145.3286  139.9792  154.7114 Cl      1  UNL1       -0.0813
     20 C         144.7506  141.0313  157.0156 C.ar    1  UNL1        0.0270
     21 N         140.3598  141.9764  167.6713 N.3     1  UNL1       -0.2723
     22 C         139.8087  140.5953  167.4740 C.3     1  UNL1        0.0721
     23 C         139.1665  140.2231  166.1705 C.3     1  UNL1        0.0179
     24 C         139.0755  141.2320  165.0643 C.3     1  UNL1        0.0119
     25 C         139.6267  142.6130  165.2615 C.3     1  UNL1        0.0927
     26 C         140.2688  142.9852  166.5650 C.3     1  UNL1        0.0812
     27 C         140.6033  143.6150  169.6726 C.3     1  UNL1        0.0188
     28 C         141.0020  142.3485  168.9748 C.3     1  UNL1        0.0721
@<TRIPOS>BOND
     1    27    28    1
     2    28    21    1
     3    21    22    1
     4    22    23    1
     5    23    24    1
     6    24    25    1
     7    25     1    1
     8     1     2    2
     9     1     3   am
    10     3     4    1
    11     4     5    1
    12     5     6    1
    13     6     7   am
    14     7     8    2
    15     7     9   am
    16     9    13    1
    17    13    14   ar
    18    14    15   ar
    19    15    16   ar
    20    16    17    1
    21    16    18   ar
    22    18    19    1
    23    18    20   ar
    24     6    10    1
    25    10    11    1
    26    25    26    1
    27    26    21    1
    28    11     3    1
    29    20    13   ar
    30     9    12    1
@<TRIPOS>MOLECULE
*****
 28 30 0 0 0
SMALL
GASTEIGER

@<TRIPOS>ATOM
      1 C         139.0903  140.1634  165.5252 C.2     1  UNL1        0.2266
      2 O         137.8631  139.3814  165.8894 O.2     1  UNL1       -0.2748
      3 N         139.1749  140.8494  164.1940 N.am    1  UNL1       -0.2760
      4 C         140.4021  141.6313  163.8299 C.3     1  UNL1        0.1150
      5 C         140.4867  142.3173  162.4986 C.3     1  UNL1        0.1165
      6 N         139.3442  142.2214  161.5315 N.am    1  UNL1       -0.2605
      7 C         139.4288  142.9073  160.2002 C.2     1  UNL1        0.3078
      8 O         138.2862  142.8114  159.2331 O.2     1  UNL1       -0.2522
      9 N         140.6560  143.6893  159.8361 N.am    1  UNL1       -0.2681
     10 C         138.1170  141.4394  161.8956 C.3     1  UNL1        0.1165
     11 C         138.0324  140.7534  163.2268 C.3     1  UNL1        0.1150
     12 H         141.4059  143.7523  160.4709 H       1  UNL1        0.1564
     13 C         140.7405  144.3753  158.5048 C.ar    1  UNL1        0.0525
     14 C         141.6421  143.8311  157.4366 C.ar    1  UNL1        0.0156
     15 C         141.7267  144.5170  156.1054 C.ar    1  UNL1        0.0135
     16 C         140.9098  145.7472  155.8423 C.ar    1  UNL1        0.0683
     17 CL        140.9943  146.4332  154.5110 Cl      1  UNL1       -0.0814
     18 C         140.0082  146.2914  156.9105 C.ar    1  UNL1        0.0694
     19 CL        139.1912  147.5216  156.6473 Cl      1  UNL1       -0.0813
     20 C         139.9236  145.6055  158.2417 C.ar    1  UNL1        0.0270
     21 N         141.3029  141.3108  168.6136 N.3     1  UNL1       -0.2723
     22 C         142.5179  140.4513  168.4267 C.3     1  UNL1        0.0721
     23 C         142.5904  139.4959  167.2727 C.3     1  UNL1        0.0179
     24 C         141.4479  139.3999  166.3055 C.3     1  UNL1        0.0119
     25 C         140.2329  140.2594  166.4924 C.3     1  UNL1        0.0927
     26 C         140.1604  141.2148  167.6465 C.3     1  UNL1        0.0812
     27 C         140.5802  143.6065  169.5920 C.3     1  UNL1        0.0188
     28 C         141.2304  142.2663  169.7677 C.3     1  UNL1        0.0721
@<TRIPOS>BOND
     1    27    28    1
     2    28    21    1
     3    21    22    1
     4    22    23    1
     5    23    24    1
     6    24    25    1
     7    25     1    1
     8     1     2    2
     9     1     3   am
    10     3     4    1
    11     4     5    1
    12     5     6    1
    13     6     7   am
    14     7     8    2
    15     7     9   am
    16     9    13    1
    17    13    14   ar
    18    14    15   ar
    19    15    16   ar
    20    16    17    1
    21    16    18   ar
    22    18    19    1
    23    18    20   ar
    24     6    10    1
    25    10    11    1
    26    25    26    1
    27    26    21    1
    28    11     3    1
    29    20    13   ar
    30     9    12    1
@<TRIPOS>MOLECULE
*****
 28 30 0 0 0
SMALL
GASTEIGER

@<TRIPOS>ATOM
      1 C         140.6988  138.0021  157.5331 C.2     1  UNL1        0.2266
      2 O         139.3623  138.0394  156.8531 O.2     1  UNL1       -0.2748
      3 N         140.8413  138.5146  158.9355 N.am    1  UNL1       -0.2760
      4 C         142.1778  138.4773  159.6155 C.3     1  UNL1        0.1150
      5 C         142.3203  138.9898  161.0180 C.3     1  UNL1        0.1165
      6 N         141.1264  139.5397  161.7405 N.am    1  UNL1       -0.2605
      7 C         141.2689  140.0522  163.1430 C.2     1  UNL1        0.3078
      8 O         140.0749  140.6021  163.8656 O.2     1  UNL1       -0.2522
      9 N         142.6054  140.0149  163.8230 N.am    1  UNL1       -0.2681
     10 C         139.7899  139.5770  161.0606 C.3     1  UNL1        0.1165
     11 C         139.6473  139.0645  159.6581 C.3     1  UNL1        0.1150
     12 H         143.3891  139.6540  163.3487 H       1  UNL1        0.1564
     13 C         142.7479  140.5274  165.2255 C.ar    1  UNL1        0.0525
     14 C         143.1360  141.9562  165.4660 C.ar    1  UNL1        0.0156
     15 C         143.2785  142.4688  166.8685 C.ar    1  UNL1        0.0135
     16 C         143.0329  141.5526  168.0304 C.ar    1  UNL1        0.0683
     17 CL        143.1754  142.0651  169.4330 Cl      1  UNL1       -0.0814
     18 C         142.6449  140.1237  167.7899 C.ar    1  UNL1        0.0694
     19 CL        142.3993  139.2075  168.9519 Cl      1  UNL1       -0.0813
     20 C         142.5023  139.6112  166.3874 C.ar    1  UNL1        0.0270
     21 N         143.3043  135.4198  156.0188 N.3     1  UNL1       -0.2723
     22 C         144.2806  136.3524  155.3654 C.3     1  UNL1        0.0721
     23 C         144.0630  137.8350  155.4345 C.3     1  UNL1        0.0179
     24 C         142.8691  138.3848  156.1570 C.3     1  UNL1        0.0119
     25 C         141.8928  137.4522  156.8105 C.3     1  UNL1        0.0927
     26 C         142.1104  135.9697  156.7413 C.3     1  UNL1        0.0812
     27 C         144.2684  133.2369  157.0461 C.3     1  UNL1        0.0188
     28 C         143.5220  133.9373  155.9497 C.3     1  UNL1        0.0721
@<TRIPOS>BOND
     1    27    28    1
     2    28    21    1
     3    21    22    1
     4    22    23    1
     5    23    24    1
     6    24    25    1
     7    25     1    1
     8     1     2    2
     9     1     3   am
    10     3     4    1
    11     4     5    1
    12     5     6    1
    13     6     7   am
    14     7     8    2
    15     7     9   am
    16     9    13    1
    17    13    14   ar
    18    14    15   ar
    19    15    16   ar
    20    16    17    1
    21    16    18   ar
    22    18    19    1
    23    18    20   ar
    24     6    10    1
    25    10    11    1
    26    25    26    1
    27    26    21    1
    28    11     3    1
    29    20    13   ar
    30     9    12    1
@<TRIPOS>MOLECULE
*****
 28 30 0 0 0
SMALL
GASTEIGER

@<TRIPOS>ATOM
      1 C         140.7231  138.2907  163.1661 C.2     1  UNL1        0.2266
      2 O         142.0525  137.5979  163.2164 O.2     1  UNL1       -0.2748
      3 N         140.1417  138.7030  161.8462 N.am    1  UNL1       -0.2760
      4 C         138.8122  139.3958  161.7959 C.3     1  UNL1        0.1150
      5 C         138.2309  139.8081  160.4759 C.3     1  UNL1        0.1165
      6 N         138.9790  139.5276  159.2065 N.am    1  UNL1       -0.2605
      7 C         138.3977  139.9399  157.8866 C.2     1  UNL1        0.3078
      8 O         139.1458  139.6594  156.6171 O.2     1  UNL1       -0.2522
      9 N         137.0682  140.6326  157.8363 N.am    1  UNL1       -0.2681
     10 C         140.3085  138.8348  159.2568 C.3     1  UNL1        0.1165
     11 C         140.8899  138.4225  160.5767 C.3     1  UNL1        0.1150
     12 H         136.5772  140.8167  158.6695 H       1  UNL1        0.1564
     13 C         136.4869  141.0449  156.5163 C.ar    1  UNL1        0.0525
     14 C         135.4231  140.2072  155.8709 C.ar    1  UNL1        0.0156
     15 C         134.8417  140.6195  154.5510 C.ar    1  UNL1        0.0135
     16 C         135.3242  141.8694  153.8766 C.ar    1  UNL1        0.0683
     17 CL        134.7429  142.2817  152.5567 Cl      1  UNL1       -0.0814
     18 C         136.3880  142.7071  154.5221 C.ar    1  UNL1        0.0694
     19 CL        136.8705  143.9571  153.8476 Cl      1  UNL1       -0.0813
     20 C         136.9693  142.2949  155.8419 C.ar    1  UNL1        0.0270
     21 N         139.6053  140.0290  166.5541 N.3     1  UNL1       -0.2723
     22 C         138.4788  139.1322  166.9746 C.3     1  UNL1        0.0721
     23 C         138.1004  137.9549  166.1256 C.3     1  UNL1        0.0179
     24 C         138.8485  137.6744  164.8561 C.3     1  UNL1        0.0119
     25 C         139.9749  138.5712  164.4356 C.3     1  UNL1        0.0927
     26 C         140.3533  139.7484  165.2846 C.3     1  UNL1        0.0812
     27 C         139.9732  141.0869  168.8983 C.3     1  UNL1        0.0188
     28 C         139.9837  141.2062  167.4032 C.3     1  UNL1        0.0721
@<TRIPOS>BOND
     1    27    28    1
     2    28    21    1
     3    21    22    1
     4    22    23    1
     5    23    24    1
     6    24    25    1
     7    25     1    1
     8     1     2    2
     9     1     3   am
    10     3     4    1
    11     4     5    1
    12     5     6    1
    13     6     7   am
    14     7     8    2
    15     7     9   am
    16     9    13    1
    17    13    14   ar
    18    14    15   ar
    19    15    16   ar
    20    16    17    1
    21    16    18   ar
    22    18    19    1
    23    18    20   ar
    24     6    10    1
    25    10    11    1
    26    25    26    1
    27    26    21    1
    28    11     3    1
    29    20    13   ar
    30     9    12    1
@<TRIPOS>MOLECULE
*****
 28 30 0 0 0
SMALL
GASTEIGER

@<TRIPOS>ATOM
      1 C         138.9042  139.7961  165.6230 C.2     1  UNL1        0.2266
      2 O         137.6150  139.1691  166.0644 O.2     1  UNL1       -0.2748
      3 N         138.9764  140.5171  164.3096 N.am    1  UNL1       -0.2760
      4 C         140.2656  141.1441  163.8682 C.3     1  UNL1        0.1150
      5 C         140.3378  141.8651  162.5548 C.3     1  UNL1        0.1165
      6 N         139.1209  141.9592  161.6829 N.am    1  UNL1       -0.2605
      7 C         139.1932  142.6802  160.3696 C.2     1  UNL1        0.3078
      8 O         137.9762  142.7742  159.4976 O.2     1  UNL1       -0.2522
      9 N         140.4823  143.3072  159.9281 N.am    1  UNL1       -0.2681
     10 C         137.8317  141.3322  162.1244 C.3     1  UNL1        0.1165
     11 C         137.7595  140.6112  163.4377 C.3     1  UNL1        0.1150
     12 H         141.2811  143.2454  160.5004 H       1  UNL1        0.1564
     13 C         140.5546  144.0282  158.6147 C.ar    1  UNL1        0.0525
     14 C         140.3754  145.5166  158.5654 C.ar    1  UNL1        0.0156
     15 C         140.4477  146.2377  157.2521 C.ar    1  UNL1        0.0135
     16 C         140.6990  145.4703  155.9881 C.ar    1  UNL1        0.0683
     17 CL        140.7712  146.1913  154.6747 Cl      1  UNL1       -0.0814
     18 C         140.8781  143.9818  156.0373 C.ar    1  UNL1        0.0694
     19 CL        141.1294  143.2144  154.7732 Cl      1  UNL1       -0.0813
     20 C         140.8059  143.2608  157.3507 C.ar    1  UNL1        0.0270
     21 N         142.6076  139.0235  166.8221 N.3     1  UNL1       -0.2723
     22 C         142.5550  139.5139  168.2386 C.3     1  UNL1        0.0721
     23 C         141.2855  140.0985  168.7833 C.3     1  UNL1        0.0179
     24 C         140.0686  140.1925  167.9115 C.3     1  UNL1        0.0119
     25 C         140.1211  139.7021  166.4949 C.3     1  UNL1        0.0927
     26 C         141.3906  139.1175  165.9502 C.3     1  UNL1        0.0812
     27 C         144.4824  138.9972  165.0238 C.3     1  UNL1        0.0188
     28 C         143.8771  138.4389  166.2774 C.3     1  UNL1        0.0721
@<TRIPOS>BOND
     1    27    28    1
     2    28    21    1
     3    21    22    1
     4    22    23    1
     5    23    24    1
     6    24    25    1
     7    25     1    1
     8     1     2    2
     9     1     3   am
    10     3     4    1
    11     4     5    1
    12     5     6    1
    13     6     7   am
    14     7     8    2
    15     7     9   am
    16     9    13    1
    17    13    14   ar
    18    14    15   ar
    19    15    16   ar
    20    16    17    1
    21    16    18   ar
    22    18    19    1
    23    18    20   ar
    24     6    10    1
    25    10    11    1
    26    25    26    1
    27    26    21    1
    28    11     3    1
    29    20    13   ar
    30     9    12    1
@<TRIPOS>MOLECULE
*****
 28 30 0 0 0
SMALL
GASTEIGER

@<TRIPOS>ATOM
      1 C         142.2444  139.4374  165.8407 C.2     1  UNL1        0.2266
      2 O         143.0307  138.1644  165.9472 O.2     1  UNL1       -0.2748
      3 N         142.0976  140.1194  164.5128 N.am    1  UNL1       -0.2760
      4 C         141.3113  141.3923  164.4063 C.3     1  UNL1        0.1150
      5 C         141.1645  142.0743  163.0783 C.3     1  UNL1        0.1165
      6 N         141.8040  141.4834  161.8570 N.am    1  UNL1       -0.2605
      7 C         141.6572  142.1654  160.5291 C.2     1  UNL1        0.3078
      8 O         142.2968  141.5744  159.3077 O.2     1  UNL1       -0.2522
      9 N         140.8709  143.4383  160.4226 N.am    1  UNL1       -0.2681
     10 C         142.5903  140.2104  161.9635 C.3     1  UNL1        0.1165
     11 C         142.7371  139.5284  163.2914 C.3     1  UNL1        0.1150
     12 H         140.4512  143.8262  161.2242 H       1  UNL1        0.1564
     13 C         140.7242  144.1203  159.0946 C.ar    1  UNL1        0.0525
     14 C         141.6579  145.2311  158.7147 C.ar    1  UNL1        0.0156
     15 C         141.5112  145.9131  157.3869 C.ar    1  UNL1        0.0135
     16 C         140.4307  145.4843  156.4389 C.ar    1  UNL1        0.0683
     17 CL        140.2839  146.1663  155.1109 Cl      1  UNL1       -0.0814
     18 C         139.4970  144.3735  156.8188 C.ar    1  UNL1        0.0694
     19 CL        138.4165  143.9447  155.8707 Cl      1  UNL1       -0.0813
     20 C         139.6437  143.6915  158.1467 C.ar    1  UNL1        0.0270
     21 N         141.7766  141.4643  169.2204 N.3     1  UNL1       -0.2723
     22 C         140.3259  141.2102  169.5049 C.3     1  UNL1        0.0721
     23 C         139.5147  140.3651  168.5680 C.3     1  UNL1        0.0179
     24 C         140.1542  139.7741  167.3466 C.3     1  UNL1        0.0119
     25 C         141.6048  140.0283  167.0621 C.3     1  UNL1        0.0927
     26 C         142.4160  140.8734  167.9991 C.3     1  UNL1        0.0812
     27 C         144.0479  142.5304  169.8946 C.3     1  UNL1        0.0188
     28 C         142.5877  142.3094  170.1574 C.3     1  UNL1        0.0721
@<TRIPOS>BOND
     1    27    28    1
     2    28    21    1
     3    21    22    1
     4    22    23    1
     5    23    24    1
     6    24    25    1
     7    25     1    1
     8     1     2    2
     9     1     3   am
    10     3     4    1
    11     4     5    1
    12     5     6    1
    13     6     7   am
    14     7     8    2
    15     7     9   am
    16     9    13    1
    17    13    14   ar
    18    14    15   ar
    19    15    16   ar
    20    16    17    1
    21    16    18   ar
    22    18    19    1
    23    18    20   ar
    24     6    10    1
    25    10    11    1
    26    25    26    1
    27    26    21    1
    28    11     3    1
    29    20    13   ar
    30     9    12    1
