@<TRIPOS>MOLECULE
*****
 37 41 0 0 0
SMALL
GASTEIGER

@<TRIPOS>ATOM
      1 C         141.4306  138.9948  164.2575 C.3     1  UNL1        0.0890
      2 C         142.5691  139.9288  163.9720 C.3     1  UNL1        0.0386
      3 C         143.4468  139.6984  162.7777 C.3     1  UNL1        0.0594
      4 C         144.0321  139.1048  161.5306 C.3     1  UNL1        0.0174
      5 C         143.2243  137.8932  161.1707 C.3     1  UNL1        0.0174
      6 C         142.1398  137.7380  162.1954 C.3     1  UNL1        0.0594
      7 C         141.1700  137.8303  163.3486 C.3     1  UNL1        0.0386
      8 N         142.2774  138.8536  163.1885 N.3     1  UNL1       -0.2750
      9 C         140.7165  142.8835  170.1735 C.2     1  UNL1        0.4053
     10 O         139.6763  142.9060  171.2540 O.2     1  UNL1       -0.2262
     11 N         140.7424  141.9974  168.9635 N.am    1  UNL1       -0.2399
     12 C         141.8665  142.1083  167.9766 C.3     1  UNL1        0.1034
     13 C         141.8924  141.2222  166.7666 C.3     1  UNL1        0.0667
     14 C         140.7943  140.2250  166.5436 C.ar    1  UNL1        0.0549
     15 C         139.6702  140.1141  167.5306 C.ar    1  UNL1        0.0921
     16 N         138.7340  139.0456  167.0487 N.ar    1  UNL1       -0.2339
     17 C         139.2795  138.4963  165.7640 C.ar    1  UNL1        0.1201
     18 C         138.6605  137.4089  164.9366 C.3     1  UNL1        0.0718
     19 N         140.5528  139.2252  165.4518 N.ar    1  UNL1       -0.3202
     20 C         139.6443  141.0002  168.7405 C.3     1  UNL1        0.1437
     21 C         143.1551  143.4224  170.8897 C.3     1  UNL1        0.2573
     22 O         141.8146  143.8807  170.3965 O.3     1  UNL1       -0.4304
     23 C         141.3996  139.0841  164.3828 C.3     1  UNL1        0.0741
     24 C         140.0176  139.6383  164.2020 C.3     1  UNL1        0.0414
     25 C         139.7832  140.7731  163.2496 C.3     1  UNL1        0.0955
     26 C         139.5273  142.1540  163.7766 C.ar    1  UNL1       -0.0022
     27 C         138.1693  142.5174  164.2998 C.ar    1  UNL1       -0.0025
     28 C         137.9133  143.8981  164.8268 C.ar    1  UNL1        0.0020
     29 C         139.0154  144.9157  164.8307 C.ar    1  UNL1        0.0296
     30 C         140.3734  144.5524  164.3075 C.ar    1  UNL1        0.1399
     31 F         141.5809  145.4395  164.2375 F       1  UNL1       -0.2042
     32 C         140.6294  143.1715  163.7805 C.ar    1  UNL1        0.0270
     33 N         139.8048  140.5271  161.7701 N.am    1  UNL1       -0.3021
     34 C         138.7982  139.6050  161.1484 C.2     1  UNL1        0.2232
     35 C         138.8197  139.3589  159.6689 C.3     1  UNL1        0.0946
     36 O         137.6629  138.7859  161.6871 O.2     1  UNL1       -0.2751
     37 H         140.4796  140.9708  161.2070 H       1  UNL1        0.1497
@<TRIPOS>BOND
     1    21    22    1
     2    22     9    1
     3     9    10    2
     4     9    11   am
     5    11    12    1
     6    12    13    1
     7    13    14    1
     8    14    15   ar
     9    15    16   ar
    10    16    17   ar
    11    17    18    1
    12    17    19   ar
    13     1    19    1
    14     1     2    1
    15     3     2    1
    16     3     4    1
    17     4     5    1
    18     6     5    1
    19     6     7    1
    20     6     8    1
    21     8    23    1
    22    23    24    1
    23    25    24    1
    24    25    33    1
    25    33    34   am
    26    34    35    1
    27    34    36    2
    28    25    26    1
    29    26    27   ar
    30    27    28   ar
    31    28    29   ar
    32    29    30   ar
    33    30    31    1
    34    30    32   ar
    35    15    20    1
    36    20    11    1
    37    19    14   ar
    38     7     1    1
    39    32    26   ar
    40     8     3    1
    41    33    37    1
@<TRIPOS>MOLECULE
*****
 37 41 0 0 0
SMALL
GASTEIGER

@<TRIPOS>ATOM
      1 C         139.1632  141.3868  163.6881 C.3     1  UNL1        0.0890
      2 C         139.9863  140.2145  163.2429 C.3     1  UNL1        0.0386
      3 C         139.8688  138.9009  163.9575 C.3     1  UNL1        0.0594
      4 C         139.4423  137.8356  164.9235 C.3     1  UNL1        0.0174
      5 C         138.4239  138.4308  165.8502 C.3     1  UNL1        0.0174
      6 C         138.2211  139.8640  165.4568 C.3     1  UNL1        0.0594
      7 C         138.2226  141.2455  164.8478 C.3     1  UNL1        0.0386
      8 N         139.1140  140.1545  164.2872 N.3     1  UNL1       -0.2750
      9 C         142.3090  144.6639  158.2112 C.2     1  UNL1        0.4053
     10 O         142.2418  146.0710  157.6958 O.2     1  UNL1       -0.2262
     11 N         141.5809  144.1004  159.3953 N.am    1  UNL1       -0.2399
     12 C         141.7649  142.6606  159.7734 C.3     1  UNL1        0.1034
     13 C         141.0368  142.0971  160.9576 C.3     1  UNL1        0.0667
     14 C         140.1246  142.9735  161.7637 C.ar    1  UNL1        0.0549
     15 C         139.9406  144.4133  161.3857 C.ar    1  UNL1        0.0921
     16 N         138.9830  145.0301  162.3618 N.ar    1  UNL1       -0.2339
     17 C         138.5753  143.9714  163.3431 C.ar    1  UNL1        0.1201
     18 C         137.6282  144.1520  164.4922 C.3     1  UNL1        0.0718
     19 N         139.2808  142.7004  162.9734 N.ar    1  UNL1       -0.3202
     20 C         140.6687  144.9768  160.2015 C.3     1  UNL1        0.1437
     21 C         142.8670  143.4366  155.9903 C.3     1  UNL1        0.2573
     22 O         143.2212  143.7876  157.4050 O.3     1  UNL1       -0.4304
     23 C         139.2316  141.4681  163.5725 C.3     1  UNL1        0.0741
     24 C         139.9123  142.6265  164.2395 C.3     1  UNL1        0.0414
     25 C         141.2368  142.4301  164.9157 C.3     1  UNL1        0.0955
     26 C         141.2926  141.8828  166.3111 C.ar    1  UNL1       -0.0022
     27 C         140.5853  142.5957  167.4253 C.ar    1  UNL1       -0.0025
     28 C         140.6411  142.0485  168.8207 C.ar    1  UNL1        0.0020
     29 C         141.4043  140.7882  169.1021 C.ar    1  UNL1        0.0296
     30 C         142.1117  140.0752  167.9880 C.ar    1  UNL1        0.1399
     31 F         142.9150  138.8127  168.0906 F       1  UNL1       -0.2042
     32 C         142.0559  140.6225  166.5924 C.ar    1  UNL1        0.0270
     33 N         142.5054  142.7810  164.1963 N.am    1  UNL1       -0.3021
     34 C         142.7737  144.2023  163.7990 C.2     1  UNL1        0.2232
     35 C         144.0422  144.5534  163.0797 C.3     1  UNL1        0.0946
     36 O         142.0178  145.4886  163.9555 O.2     1  UNL1       -0.2751
     37 H         143.1619  142.0785  163.9849 H       1  UNL1        0.1497
@<TRIPOS>BOND
     1    21    22    1
     2    22     9    1
     3     9    10    2
     4     9    11   am
     5    11    12    1
     6    12    13    1
     7    13    14    1
     8    14    15   ar
     9    15    16   ar
    10    16    17   ar
    11    17    18    1
    12    17    19   ar
    13     1    19    1
    14     1     2    1
    15     3     2    1
    16     3     4    1
    17     4     5    1
    18     6     5    1
    19     6     7    1
    20     6     8    1
    21     8    23    1
    22    23    24    1
    23    25    24    1
    24    25    33    1
    25    33    34   am
    26    34    35    1
    27    34    36    2
    28    25    26    1
    29    26    27   ar
    30    27    28   ar
    31    28    29   ar
    32    29    30   ar
    33    30    31    1
    34    30    32   ar
    35    15    20    1
    36    20    11    1
    37    19    14   ar
    38     7     1    1
    39    32    26   ar
    40     8     3    1
    41    33    37    1
@<TRIPOS>MOLECULE
*****
 37 41 0 0 0
SMALL
GASTEIGER

@<TRIPOS>ATOM
      1 C         138.9597  141.5099  164.4430 C.3     1  UNL1        0.0890
      2 C         138.1092  140.2775  164.5323 C.3     1  UNL1        0.0386
      3 C         138.0983  139.4635  165.7921 C.3     1  UNL1        0.0594
      4 C         138.3894  138.9837  167.1832 C.3     1  UNL1        0.0174
      5 C         139.3651  139.9368  167.8076 C.3     1  UNL1        0.0174
      6 C         139.6769  141.0055  166.8022 C.3     1  UNL1        0.0594
      7 C         139.7991  141.9282  165.6136 C.3     1  UNL1        0.0386
      8 N         138.8941  140.7130  165.5567 N.3     1  UNL1       -0.2750
      9 C         138.3418  141.1152  157.3653 C.2     1  UNL1        0.4053
     10 O         138.3972  142.1515  156.2822 O.2     1  UNL1       -0.2262
     11 N         138.4904  141.3423  158.8405 N.am    1  UNL1       -0.2399
     12 C         138.4076  140.1838  159.7898 C.3     1  UNL1        0.1034
     13 C         138.5562  140.4109  161.2650 C.3     1  UNL1        0.0667
     14 C         138.7875  141.7965  161.7910 C.ar    1  UNL1        0.0549
     15 C         138.8703  142.9549  160.8418 C.ar    1  UNL1        0.0921
     16 N         139.1045  144.1985  161.6473 N.ar    1  UNL1       -0.2339
     17 C         139.1665  143.8085  163.0944 C.ar    1  UNL1        0.1201
     18 C         139.3859  144.7396  164.2499 C.3     1  UNL1        0.0718
     19 N         138.9706  142.3240  163.1832 N.ar    1  UNL1       -0.3202
     20 C         138.7217  142.7278  159.3665 C.3     1  UNL1        0.1437
     21 C         139.2419  138.9636  156.2205 C.3     1  UNL1        0.2573
     22 O         138.1104  139.7296  156.8393 O.3     1  UNL1       -0.4304
     23 C         138.9050  141.5270  164.2969 C.3     1  UNL1        0.0741
     24 C         140.2064  141.8538  163.6264 C.3     1  UNL1        0.0414
     25 C         141.3127  140.8412  163.6022 C.3     1  UNL1        0.0955
     26 C         142.7409  141.2880  163.7043 C.ar    1  UNL1       -0.0022
     27 C         143.7906  140.6472  162.8455 C.ar    1  UNL1       -0.0025
     28 C         145.2188  141.0940  162.9476 C.ar    1  UNL1        0.0020
     29 C         145.5975  142.1818  163.9086 C.ar    1  UNL1        0.0296
     30 C         144.5478  142.8226  164.7674 C.ar    1  UNL1        0.1399
     31 F         144.7492  143.9158  165.7745 F       1  UNL1       -0.2042
     32 C         143.1195  142.3758  164.6653 C.ar    1  UNL1        0.0270
     33 N         140.9907  139.3816  163.4758 N.am    1  UNL1       -0.3021
     34 C         141.3844  138.4296  164.5661 C.2     1  UNL1        0.2232
     35 C         141.0625  136.9700  164.4398 C.3     1  UNL1        0.0946
     36 O         142.0887  138.5852  165.8813 O.2     1  UNL1       -0.2751
     37 H         140.5211  139.0485  162.6772 H       1  UNL1        0.1497
@<TRIPOS>BOND
     1    21    22    1
     2    22     9    1
     3     9    10    2
     4     9    11   am
     5    11    12    1
     6    12    13    1
     7    13    14    1
     8    14    15   ar
     9    15    16   ar
    10    16    17   ar
    11    17    18    1
    12    17    19   ar
    13     1    19    1
    14     1     2    1
    15     3     2    1
    16     3     4    1
    17     4     5    1
    18     6     5    1
    19     6     7    1
    20     6     8    1
    21     8    23    1
    22    23    24    1
    23    25    24    1
    24    25    33    1
    25    33    34   am
    26    34    35    1
    27    34    36    2
    28    25    26    1
    29    26    27   ar
    30    27    28   ar
    31    28    29   ar
    32    29    30   ar
    33    30    31    1
    34    30    32   ar
    35    15    20    1
    36    20    11    1
    37    19    14   ar
    38     7     1    1
    39    32    26   ar
    40     8     3    1
    41    33    37    1
@<TRIPOS>MOLECULE
*****
 37 41 0 0 0
SMALL
GASTEIGER

@<TRIPOS>ATOM
      1 C         143.5304  141.2584  164.7289 C.3     1  UNL1        0.0890
      2 C         143.8765  139.7995  164.7725 C.3     1  UNL1        0.0386
      3 C         143.5751  138.9936  166.0011 C.3     1  UNL1        0.0594
      4 C         143.1112  138.6038  167.3732 C.3     1  UNL1        0.0174
      5 C         142.5375  139.8231  168.0324 C.3     1  UNL1        0.0174
      6 C         142.6469  140.9663  167.0675 C.3     1  UNL1        0.0594
      7 C         142.8829  141.9113  165.9140 C.3     1  UNL1        0.0386
      8 N         143.2881  140.4537  165.8122 N.3     1  UNL1       -0.2750
      9 C         144.3016  140.8600  157.6664 C.2     1  UNL1        0.4053
     10 O         144.6232  141.8865  156.6210 O.2     1  UNL1       -0.2262
     11 N         144.1678  141.0866  159.1432 N.am    1  UNL1       -0.2399
     12 C         143.8395  139.9389  160.0514 C.3     1  UNL1        0.1034
     13 C         143.7056  140.1656  161.5281 C.3     1  UNL1        0.0667
     14 C         143.9000  141.5399  162.0966 C.ar    1  UNL1        0.0549
     15 C         144.2283  142.6877  161.1884 C.ar    1  UNL1        0.0921
     16 N         144.3630  143.9215  162.0308 N.ar    1  UNL1       -0.2339
     17 C         144.1180  143.5363  163.4596 C.ar    1  UNL1        0.1201
     18 C         144.1529  144.4607  164.6405 C.3     1  UNL1        0.0718
     19 N         143.8318  142.0644  163.5003 N.ar    1  UNL1       -0.3202
     20 C         144.3622  142.4610  159.7117 C.3     1  UNL1        0.1437
     21 C         142.7758  139.0896  156.5317 C.3     1  UNL1        0.2573
     22 O         144.1072  139.4856  157.0979 O.3     1  UNL1       -0.4304
     23 C         143.5896  141.2597  164.5835 C.3     1  UNL1        0.0741
     24 C         142.5083  142.0734  163.9364 C.3     1  UNL1        0.0414
     25 C         141.1195  141.5186  163.8208 C.3     1  UNL1        0.0955
     26 C         139.9442  142.4478  163.7495 C.ar    1  UNL1       -0.0022
     27 C         138.9968  142.3713  162.5890 C.ar    1  UNL1       -0.0025
     28 C         137.8215  143.3004  162.5176 C.ar    1  UNL1        0.0020
     29 C         137.5934  144.3063  163.6068 C.ar    1  UNL1        0.0296
     30 C         138.5408  144.3829  164.7673 C.ar    1  UNL1        0.1399
     31 F         138.4638  145.3212  165.9350 F       1  UNL1       -0.2042
     32 C         139.7161  143.4537  164.8387 C.ar    1  UNL1        0.0270
     33 N         140.9060  140.0345  163.7765 N.am    1  UNL1       -0.3021
     34 C         140.1099  139.3589  164.8533 C.2     1  UNL1        0.2232
     35 C         139.8964  137.8748  164.8091 C.3     1  UNL1        0.0946
     36 O         139.4035  139.8415  166.0855 O.2     1  UNL1       -0.2751
     37 H         141.2884  139.5040  163.0406 H       1  UNL1        0.1497
@<TRIPOS>BOND
     1    21    22    1
     2    22     9    1
     3     9    10    2
     4     9    11   am
     5    11    12    1
     6    12    13    1
     7    13    14    1
     8    14    15   ar
     9    15    16   ar
    10    16    17   ar
    11    17    18    1
    12    17    19   ar
    13     1    19    1
    14     1     2    1
    15     3     2    1
    16     3     4    1
    17     4     5    1
    18     6     5    1
    19     6     7    1
    20     6     8    1
    21     8    23    1
    22    23    24    1
    23    25    24    1
    24    25    33    1
    25    33    34   am
    26    34    35    1
    27    34    36    2
    28    25    26    1
    29    26    27   ar
    30    27    28   ar
    31    28    29   ar
    32    29    30   ar
    33    30    31    1
    34    30    32   ar
    35    15    20    1
    36    20    11    1
    37    19    14   ar
    38     7     1    1
    39    32    26   ar
    40     8     3    1
    41    33    37    1
@<TRIPOS>MOLECULE
*****
 37 41 0 0 0
SMALL
GASTEIGER

@<TRIPOS>ATOM
      1 C         143.2818  141.0721  166.0488 C.3     1  UNL1        0.0890
      2 C         143.0788  142.0375  167.1788 C.3     1  UNL1        0.0386
      3 C         142.7083  141.5304  168.5410 C.3     1  UNL1        0.0594
      4 C         142.3621  140.6133  169.6763 C.3     1  UNL1        0.0174
      5 C         142.3825  139.2058  169.1580 C.3     1  UNL1        0.0174
      6 C         142.7412  139.2532  167.7023 C.3     1  UNL1        0.0594
      7 C         143.1141  139.5998  166.2810 C.3     1  UNL1        0.0386
      8 N         142.9426  140.6898  167.3210 N.3     1  UNL1       -0.2750
      9 C         143.6174  139.2844  159.1696 C.2     1  UNL1        0.4053
     10 O         144.0542  140.0343  157.9461 O.2     1  UNL1       -0.2262
     11 N         143.5983  139.7921  160.5809 N.am    1  UNL1       -0.2399
     12 C         143.1275  138.9014  161.6921 C.3     1  UNL1        0.1034
     13 C         143.1085  139.4092  163.1034 C.3     1  UNL1        0.0667
     14 C         143.5602  140.8077  163.4035 C.ar    1  UNL1        0.0549
     15 C         144.0310  141.6984  162.2923 C.ar    1  UNL1        0.0921
     16 N         144.4141  143.0205  162.8885 N.ar    1  UNL1       -0.2339
     17 C         144.1801  142.9468  164.3683 C.ar    1  UNL1        0.1201
     18 C         144.4299  144.0474  165.3564 C.3     1  UNL1        0.0718
     19 N         143.6523  141.5792  164.6866 N.ar    1  UNL1       -0.3202
     20 C         144.0501  141.1906  160.8809 C.3     1  UNL1        0.1437
     21 C         142.1617  137.6389  157.7827 C.3     1  UNL1        0.2573
     22 O         143.1656  137.8859  158.8695 O.3     1  UNL1       -0.4304
     23 C         143.3131  141.1968  165.9588 C.3     1  UNL1        0.0741
     24 C         142.2493  141.4112  164.9233 C.3     1  UNL1        0.0414
     25 C         140.8269  141.6340  165.3443 C.3     1  UNL1        0.0955
     26 C         139.9294  140.4607  165.6052 C.ar    1  UNL1       -0.0022
     27 C         139.3120  140.2753  166.9596 C.ar    1  UNL1       -0.0025
     28 C         138.4146  139.1021  167.2206 C.ar    1  UNL1        0.0020
     29 C         138.1345  138.1142  166.1271 C.ar    1  UNL1        0.0296
     30 C         138.7519  138.2996  164.7727 C.ar    1  UNL1        0.1399
     31 F         138.5806  137.4148  163.5737 F       1  UNL1       -0.2042
     32 C         139.6494  139.4729  164.5117 C.ar    1  UNL1        0.0270
     33 N         140.3020  143.0300  165.5044 N.am    1  UNL1       -0.3021
     34 C         138.9488  143.3888  164.9656 C.2     1  UNL1        0.2232
     35 C         138.4238  144.7847  165.1257 C.3     1  UNL1        0.0946
     36 O         137.8828  142.6276  164.2347 O.2     1  UNL1       -0.2751
     37 H         140.8456  143.7107  165.9630 H       1  UNL1        0.1497
@<TRIPOS>BOND
     1    21    22    1
     2    22     9    1
     3     9    10    2
     4     9    11   am
     5    11    12    1
     6    12    13    1
     7    13    14    1
     8    14    15   ar
     9    15    16   ar
    10    16    17   ar
    11    17    18    1
    12    17    19   ar
    13     1    19    1
    14     1     2    1
    15     3     2    1
    16     3     4    1
    17     4     5    1
    18     6     5    1
    19     6     7    1
    20     6     8    1
    21     8    23    1
    22    23    24    1
    23    25    24    1
    24    25    33    1
    25    33    34   am
    26    34    35    1
    27    34    36    2
    28    25    26    1
    29    26    27   ar
    30    27    28   ar
    31    28    29   ar
    32    29    30   ar
    33    30    31    1
    34    30    32   ar
    35    15    20    1
    36    20    11    1
    37    19    14   ar
    38     7     1    1
    39    32    26   ar
    40     8     3    1
    41    33    37    1
@<TRIPOS>MOLECULE
*****
 37 41 0 0 0
SMALL
GASTEIGER

@<TRIPOS>ATOM
      1 C         141.3125  138.9306  163.1077 C.3     1  UNL1        0.0890
      2 C         140.9677  139.1519  161.6647 C.3     1  UNL1        0.0386
      3 C         142.0131  138.9617  160.6060 C.3     1  UNL1        0.0594
      4 C         143.3170  138.6679  159.9251 C.3     1  UNL1        0.0174
      5 C         144.3188  138.3024  160.9801 C.3     1  UNL1        0.0174
      6 C         143.6341  138.3704  162.3129 C.3     1  UNL1        0.0594
      7 C         142.7028  138.5190  163.4918 C.3     1  UNL1        0.0386
      8 N         142.2092  138.7779  162.0818 N.3     1  UNL1       -0.2750
      9 C         140.3513  140.2085  170.0413 C.2     1  UNL1        0.4053
     10 O         139.1199  140.3579  170.8847 O.2     1  UNL1       -0.2262
     11 N         140.4085  139.9361  168.5673 N.am    1  UNL1       -0.2399
     12 C         141.7351  139.8157  167.8778 C.3     1  UNL1        0.1034
     13 C         141.7923  139.5432  166.4039 C.3     1  UNL1        0.0667
     14 C         140.5229  139.3911  165.6195 C.ar    1  UNL1        0.0549
     15 C         139.1962  139.5115  166.3090 C.ar    1  UNL1        0.0921
     16 N         138.1205  139.3156  165.2821 N.ar    1  UNL1       -0.2339
     17 C         138.7824  139.0741  163.9578 C.ar    1  UNL1        0.1201
     18 C         138.0825  138.8290  162.6539 C.3     1  UNL1        0.0718
     19 N         140.2671  139.1208  164.1664 N.ar    1  UNL1       -0.3202
     20 C         139.1391  139.7840  167.7830 C.3     1  UNL1        0.1437
     21 C         142.1278  141.7287  171.1741 C.3     1  UNL1        0.2573
     22 O         141.6208  140.3606  170.8257 O.3     1  UNL1       -0.4304
     23 C         141.1637  138.9681  163.1405 C.3     1  UNL1        0.0741
     24 C         141.1769  140.2011  163.9945 C.3     1  UNL1        0.0414
     25 C         141.2755  141.5548  163.3559 C.3     1  UNL1        0.0955
     26 C         140.0928  142.4773  163.3672 C.ar    1  UNL1       -0.0022
     27 C         139.0792  142.4108  162.2634 C.ar    1  UNL1       -0.0025
     28 C         137.8965  143.3332  162.2746 C.ar    1  UNL1        0.0020
     29 C         137.7273  144.3224  163.3895 C.ar    1  UNL1        0.0296
     30 C         138.7408  144.3889  164.4933 C.ar    1  UNL1        0.1399
     31 F         138.7275  145.3103  165.6768 F       1  UNL1       -0.2042
     32 C         139.9236  143.4664  164.4821 C.ar    1  UNL1        0.0270
     33 N         142.5568  141.9860  162.7061 N.am    1  UNL1       -0.3021
     34 C         143.8394  141.9549  163.4833 C.2     1  UNL1        0.2232
     35 C         145.1207  142.3860  162.8336 C.3     1  UNL1        0.0946
     36 O         144.1988  141.5622  164.8857 O.2     1  UNL1       -0.2751
     37 H         142.5560  142.2894  161.7695 H       1  UNL1        0.1497
@<TRIPOS>BOND
     1    21    22    1
     2    22     9    1
     3     9    10    2
     4     9    11   am
     5    11    12    1
     6    12    13    1
     7    13    14    1
     8    14    15   ar
     9    15    16   ar
    10    16    17   ar
    11    17    18    1
    12    17    19   ar
    13     1    19    1
    14     1     2    1
    15     3     2    1
    16     3     4    1
    17     4     5    1
    18     6     5    1
    19     6     7    1
    20     6     8    1
    21     8    23    1
    22    23    24    1
    23    25    24    1
    24    25    33    1
    25    33    34   am
    26    34    35    1
    27    34    36    2
    28    25    26    1
    29    26    27   ar
    30    27    28   ar
    31    28    29   ar
    32    29    30   ar
    33    30    31    1
    34    30    32   ar
    35    15    20    1
    36    20    11    1
    37    19    14   ar
    38     7     1    1
    39    32    26   ar
    40     8     3    1
    41    33    37    1
@<TRIPOS>MOLECULE
*****
 37 41 0 0 0
SMALL
GASTEIGER

@<TRIPOS>ATOM
      1 C         143.1167  140.1160  164.1155 C.3     1  UNL1        0.0890
      2 C         144.3085  140.0647  163.2061 C.3     1  UNL1        0.0386
      3 C         144.3014  139.1584  162.0109 C.3     1  UNL1        0.0594
      4 C         143.8683  138.1531  160.9854 C.3     1  UNL1        0.0174
      5 C         142.4880  137.6889  161.3454 C.3     1  UNL1        0.0174
      6 C         142.0683  138.4075  162.5934 C.3     1  UNL1        0.0594
      7 C         141.9179  139.2609  163.8296 C.3     1  UNL1        0.0386
      8 N         143.1889  139.3156  163.0046 N.3     1  UNL1       -0.2750
      9 C         140.3788  141.0379  170.6182 C.2     1  UNL1        0.4053
     10 O         140.5729  142.0994  171.6601 O.2     1  UNL1       -0.2262
     11 N         141.0304  140.9673  169.2690 N.am    1  UNL1       -0.2399
     12 C         140.7204  139.8269  168.3452 C.3     1  UNL1        0.1034
     13 C         141.3720  139.7563  166.9960 C.3     1  UNL1        0.0667
     14 C         142.3336  140.8260  166.5706 C.ar    1  UNL1        0.0549
     15 C         142.6436  141.9664  167.4944 C.ar    1  UNL1        0.0921
     16 N         143.6252  142.8674  166.8055 N.ar    1  UNL1       -0.2339
     17 C         143.9219  142.2839  165.4559 C.ar    1  UNL1        0.1201
     18 C         144.8533  142.8608  164.4312 C.3     1  UNL1        0.0718
     19 N         143.1237  141.0223  165.3107 N.ar    1  UNL1       -0.3202
     20 C         141.9920  142.0370  168.8436 C.3     1  UNL1        0.1437
     21 C         138.0387  139.9211  170.4540 C.3     1  UNL1        0.2573
     22 O         139.4172  139.9682  171.0436 O.3     1  UNL1       -0.4304
     23 C         143.1959  140.2219  164.1998 C.3     1  UNL1        0.0741
     24 C         142.0674  141.1860  164.4167 C.3     1  UNL1        0.0414
     25 C         141.4884  141.9367  163.2543 C.3     1  UNL1        0.0955
     26 C         140.2193  142.7182  163.4233 C.ar    1  UNL1       -0.0022
     27 C         139.1348  142.6198  162.3917 C.ar    1  UNL1       -0.0025
     28 C         137.8658  143.4013  162.5606 C.ar    1  UNL1        0.0020
     29 C         137.6811  144.2814  163.7613 C.ar    1  UNL1        0.0296
     30 C         138.7655  144.3798  164.7929 C.ar    1  UNL1        0.1399
     31 F         138.7480  145.2051  166.0453 F       1  UNL1       -0.2042
     32 C         140.0347  143.5982  164.6239 C.ar    1  UNL1        0.0270
     33 N         142.1785  141.9058  161.9228 N.am    1  UNL1       -0.3021
     34 C         142.8207  143.1487  161.3819 C.2     1  UNL1        0.2232
     35 C         143.5108  143.1179  160.0505 C.3     1  UNL1        0.0946
     36 O         142.9604  144.5541  161.8874 O.2     1  UNL1       -0.2751
     37 H         142.2099  141.0697  161.4039 H       1  UNL1        0.1497
@<TRIPOS>BOND
     1    21    22    1
     2    22     9    1
     3     9    10    2
     4     9    11   am
     5    11    12    1
     6    12    13    1
     7    13    14    1
     8    14    15   ar
     9    15    16   ar
    10    16    17   ar
    11    17    18    1
    12    17    19   ar
    13     1    19    1
    14     1     2    1
    15     3     2    1
    16     3     4    1
    17     4     5    1
    18     6     5    1
    19     6     7    1
    20     6     8    1
    21     8    23    1
    22    23    24    1
    23    25    24    1
    24    25    33    1
    25    33    34   am
    26    34    35    1
    27    34    36    2
    28    25    26    1
    29    26    27   ar
    30    27    28   ar
    31    28    29   ar
    32    29    30   ar
    33    30    31    1
    34    30    32   ar
    35    15    20    1
    36    20    11    1
    37    19    14   ar
    38     7     1    1
    39    32    26   ar
    40     8     3    1
    41    33    37    1
@<TRIPOS>MOLECULE
*****
 37 41 0 0 0
SMALL
GASTEIGER

@<TRIPOS>ATOM
      1 C         139.1969  141.4078  163.6871 C.3     1  UNL1        0.0890
      2 C         138.4242  141.2935  164.9676 C.3     1  UNL1        0.0386
      3 C         138.2161  139.9496  165.6005 C.3     1  UNL1        0.0594
      4 C         138.2568  138.4725  165.8585 C.3     1  UNL1        0.0174
      5 C         139.0289  137.8286  164.7453 C.3     1  UNL1        0.0174
      6 C         139.4654  138.9078  163.7993 C.3     1  UNL1        0.0594
      7 C         139.7615  140.1783  163.0395 C.3     1  UNL1        0.0386
      8 N         138.9631  140.2186  164.3279 N.3     1  UNL1       -0.2750
      9 C         142.2317  144.7336  158.1769 C.2     1  UNL1        0.4053
     10 O         142.2842  146.1750  157.7651 O.2     1  UNL1       -0.2262
     11 N         141.5447  144.1635  159.3824 N.am    1  UNL1       -0.2399
     12 C         141.5926  142.6875  159.6449 C.3     1  UNL1        0.1034
     13 C         140.9057  142.1174  160.8503 C.3     1  UNL1        0.0667
     14 C         140.1709  143.0234  161.7933 C.ar    1  UNL1        0.0549
     15 C         140.1230  144.4994  161.5308 C.ar    1  UNL1        0.0921
     16 N         139.3275  145.1401  162.6294 N.ar    1  UNL1       -0.2339
     17 C         138.8838  144.0599  163.5709 C.ar    1  UNL1        0.1201
     18 C         138.0629  144.2539  164.8113 C.3     1  UNL1        0.0718
     19 N         139.4050  142.7517  163.0541 N.ar    1  UNL1       -0.3202
     20 C         140.8099  145.0695  160.3253 C.3     1  UNL1        0.1437
     21 C         142.7124  143.9157  155.7583 C.3     1  UNL1        0.2573
     22 O         142.9665  143.8276  157.2339 O.3     1  UNL1       -0.4304
     23 C         139.1712  141.5625  163.6950 C.3     1  UNL1        0.0741
     24 C         140.5500  142.1474  163.6129 C.3     1  UNL1        0.0414
     25 C         141.4733  142.0598  164.7917 C.3     1  UNL1        0.0955
     26 C         142.6866  141.1799  164.7304 C.ar    1  UNL1       -0.0022
     27 C         142.6151  139.7678  165.2313 C.ar    1  UNL1       -0.0025
     28 C         143.8282  138.8878  165.1700 C.ar    1  UNL1        0.0020
     29 C         145.1131  139.4199  164.6077 C.ar    1  UNL1        0.0296
     30 C         145.1846  140.8320  164.1068 C.ar    1  UNL1        0.1399
     31 F         146.3794  141.5215  163.5178 F       1  UNL1       -0.2042
     32 C         143.9713  141.7120  164.1681 C.ar    1  UNL1        0.0270
     33 N         141.1834  142.8520  166.0320 N.am    1  UNL1       -0.3021
     34 C         140.8707  142.1451  167.3175 C.2     1  UNL1        0.2232
     35 C         140.5807  142.9373  168.5578 C.3     1  UNL1        0.0946
     36 O         140.7644  140.7024  167.7143 O.2     1  UNL1       -0.2751
     37 H         141.1983  143.8360  166.0023 H       1  UNL1        0.1497
@<TRIPOS>BOND
     1    21    22    1
     2    22     9    1
     3     9    10    2
     4     9    11   am
     5    11    12    1
     6    12    13    1
     7    13    14    1
     8    14    15   ar
     9    15    16   ar
    10    16    17   ar
    11    17    18    1
    12    17    19   ar
    13     1    19    1
    14     1     2    1
    15     3     2    1
    16     3     4    1
    17     4     5    1
    18     6     5    1
    19     6     7    1
    20     6     8    1
    21     8    23    1
    22    23    24    1
    23    25    24    1
    24    25    33    1
    25    33    34   am
    26    34    35    1
    27    34    36    2
    28    25    26    1
    29    26    27   ar
    30    27    28   ar
    31    28    29   ar
    32    29    30   ar
    33    30    31    1
    34    30    32   ar
    35    15    20    1
    36    20    11    1
    37    19    14   ar
    38     7     1    1
    39    32    26   ar
    40     8     3    1
    41    33    37    1
@<TRIPOS>MOLECULE
*****
 37 41 0 0 0
SMALL
GASTEIGER

@<TRIPOS>ATOM
      1 C         140.8969  139.4629  166.7399 C.3     1  UNL1        0.0890
      2 C         142.3446  139.3188  167.1053 C.3     1  UNL1        0.0386
      3 C         142.8462  139.8614  168.4106 C.3     1  UNL1        0.0594
      4 C         142.8963  140.5256  169.7545 C.3     1  UNL1        0.0174
      5 C         141.5143  141.0054  170.0863 C.3     1  UNL1        0.0174
      6 C         140.6102  140.6375  168.9473 C.3     1  UNL1        0.0594
      7 C         139.9510  140.1496  167.6799 C.3     1  UNL1        0.0386
      8 N         141.4333  139.9305  167.9118 N.3     1  UNL1       -0.2750
      9 C         142.5754  138.5816  159.8815 C.2     1  UNL1        0.4053
     10 O         141.8396  137.9684  158.7271 O.2     1  UNL1       -0.2262
     11 N         142.0945  138.7021  161.2972 N.am    1  UNL1       -0.2399
     12 C         142.9658  139.3487  162.3328 C.3     1  UNL1        0.1034
     13 C         142.4849  139.4692  163.7485 C.3     1  UNL1        0.0667
     14 C         141.1326  138.9432  164.1285 C.ar    1  UNL1        0.0549
     15 C         140.2612  138.2966  163.0929 C.ar    1  UNL1        0.0921
     16 N         138.9852  137.8741  163.7589 N.ar    1  UNL1       -0.2339
     17 C         139.0681  138.2595  165.2061 C.ar    1  UNL1        0.1201
     18 C         138.0096  138.0254  166.2429 C.3     1  UNL1        0.0718
     19 N         140.3952  138.9203  165.4346 N.ar    1  UNL1       -0.3202
     20 C         140.7422  138.1761  161.6772 C.3     1  UNL1        0.1437
     21 C         144.0456  140.4015  158.7518 C.3     1  UNL1        0.2573
     22 O         143.9277  139.1077  159.5014 O.3     1  UNL1       -0.4304
     23 C         140.9316  139.3879  166.6064 C.3     1  UNL1        0.0741
     24 C         140.0927  140.2488  165.7091 C.3     1  UNL1        0.0414
     25 C         140.4998  141.6662  165.4346 C.3     1  UNL1        0.0955
     26 C         139.5708  142.5838  164.6964 C.ar    1  UNL1       -0.0022
     27 C         139.1766  143.8981  165.3024 C.ar    1  UNL1       -0.0025
     28 C         138.2476  144.8157  164.5644 C.ar    1  UNL1        0.0020
     29 C         137.7127  144.4191  163.2202 C.ar    1  UNL1        0.0296
     30 C         138.1069  143.1048  162.6143 C.ar    1  UNL1        0.1399
     31 F         137.6692  142.5540  161.2895 F       1  UNL1       -0.2042
     32 C         139.0360  142.1871  163.3524 C.ar    1  UNL1        0.0270
     33 N         141.8360  142.1659  165.8982 N.am    1  UNL1       -0.3021
     34 C         142.7955  142.7652  164.9133 C.2     1  UNL1        0.2232
     35 C         144.1317  143.2649  165.3768 C.3     1  UNL1        0.0946
     36 O         142.7508  143.0154  163.4349 O.2     1  UNL1       -0.2751
     37 H         142.0832  142.1005  166.8489 H       1  UNL1        0.1497
@<TRIPOS>BOND
     1    21    22    1
     2    22     9    1
     3     9    10    2
     4     9    11   am
     5    11    12    1
     6    12    13    1
     7    13    14    1
     8    14    15   ar
     9    15    16   ar
    10    16    17   ar
    11    17    18    1
    12    17    19   ar
    13     1    19    1
    14     1     2    1
    15     3     2    1
    16     3     4    1
    17     4     5    1
    18     6     5    1
    19     6     7    1
    20     6     8    1
    21     8    23    1
    22    23    24    1
    23    25    24    1
    24    25    33    1
    25    33    34   am
    26    34    35    1
    27    34    36    2
    28    25    26    1
    29    26    27   ar
    30    27    28   ar
    31    28    29   ar
    32    29    30   ar
    33    30    31    1
    34    30    32   ar
    35    15    20    1
    36    20    11    1
    37    19    14   ar
    38     7     1    1
    39    32    26   ar
    40     8     3    1
    41    33    37    1
