@<TRIPOS>MOLECULE
*****
 31 34 0 0 0
SMALL
GASTEIGER

@<TRIPOS>ATOM
      1 C         142.3831  142.1883  164.2865 C.ar    1  UNL1        0.0191
      2 C         143.2003  143.4429  164.1969 C.ar    1  UNL1        0.0023
      3 C         143.1760  144.2659  162.9432 C.ar    1  UNL1        0.0367
      4 C         142.3344  143.8343  161.7789 C.ar    1  UNL1        0.1385
      5 C         141.5173  142.5796  161.8685 C.ar    1  UNL1        0.0367
      6 C         141.5416  141.7566  163.1223 C.ar    1  UNL1        0.0023
      7 C         140.8721  141.4265  169.1994 C.ar    1  UNL1        0.1737
      8 C         140.8965  140.6035  170.4532 C.ar    1  UNL1        0.0401
      9 C         141.7008  139.3383  170.5044 C.ar    1  UNL1        0.0046
     10 C         142.4806  138.8962  169.3018 C.ar    1  UNL1        0.0217
     11 C         142.4562  139.7192  168.0480 C.ar    1  UNL1        0.1426
     12 C         141.6520  140.9843  167.9968 C.ar    1  UNL1        0.1895
     13 O         141.6276  141.8074  166.7430 O.3     1  UNL1       -0.4686
     14 C         142.4075  141.3653  165.5404 C.3     1  UNL1        0.2104
     15 C         143.2118  140.1001  165.5916 C.3     1  UNL1        0.1779
     16 C         143.9917  139.6580  164.3889 C.3     1  UNL1        0.0300
     17 S         143.2362  139.2771  166.8453 S.O2    1  UNL1        0.0138
     18 O         143.5719  138.1666  167.7962 O.2     1  UNL1       -0.1685
     19 O         144.1327  138.4493  165.9729 O.2     1  UNL1       -0.1685
     20 C         140.5381  143.9097  169.8864 C.3     1  UNL1        0.2526
     21 O         140.0678  142.6916  169.1482 O.3     1  UNL1       -0.4683
     22 O         142.3101  144.6573  160.5251 O.3     1  UNL1       -0.4754
     23 C         141.0126  144.9007  159.8128 C.3     1  UNL1        0.2068
     24 C         139.9971  145.8341  160.4022 C.3     1  UNL1        0.0646
     25 C         139.9699  146.0750  161.8825 C.3     1  UNL1        0.0759
     26 N         139.3490  145.0604  162.7962 N.3     1  UNL1       -0.2726
     27 C         138.3021  144.1217  162.2738 C.3     1  UNL1        0.0721
     28 C         137.6812  143.1070  163.1876 C.3     1  UNL1        0.0174
     29 C         138.1071  143.0311  164.6238 C.3     1  UNL1        0.0029
     30 C         139.1539  143.9698  165.1463 C.3     1  UNL1        0.0174
     31 C         139.7749  144.9844  164.2326 C.3     1  UNL1        0.0721
@<TRIPOS>BOND
     1    20    21    1
     2    21     7    1
     3     7     8   ar
     4     8     9   ar
     5     9    10   ar
     6    10    11   ar
     7    11    12   ar
     8    12    13    1
     9    13    14    1
    10    14     1    1
    11     1     2   ar
    12     2     3   ar
    13     3     4   ar
    14     4    22    1
    15    22    23    1
    16    23    24    1
    17    24    25    1
    18    25    26    1
    19    26    27    1
    20    27    28    1
    21    28    29    1
    22    29    30    1
    23    30    31    1
    24     4     5   ar
    25     5     6   ar
    26    14    15    1
    27    15    16    1
    28    15    17    1
    29    17    18    2
    30    17    19    2
    31    12     7   ar
    32     6     1   ar
    33    17    11    1
    34    31    26    1
@<TRIPOS>MOLECULE
*****
 31 34 0 0 0
SMALL
GASTEIGER

@<TRIPOS>ATOM
      1 C         139.8183  141.1259  164.6929 C.ar    1  UNL1        0.0191
      2 C         139.9092  142.0836  165.8438 C.ar    1  UNL1        0.0023
      3 C         139.6710  141.5991  167.2432 C.ar    1  UNL1        0.0367
      4 C         139.3419  140.1570  167.4918 C.ar    1  UNL1        0.1385
      5 C         139.2511  139.1993  166.3409 C.ar    1  UNL1        0.0367
      6 C         139.4893  139.6837  164.9414 C.ar    1  UNL1        0.0023
      7 C         143.0144  141.8273  160.6564 C.ar    1  UNL1        0.1737
      8 C         143.2526  142.3118  159.2569 C.ar    1  UNL1        0.0401
      9 C         142.1309  142.9302  158.4762 C.ar    1  UNL1        0.0046
     10 C         140.7711  143.0640  159.0950 C.ar    1  UNL1        0.0217
     11 C         140.5329  142.5795  160.4944 C.ar    1  UNL1        0.1426
     12 C         141.6546  141.9611  161.2751 C.ar    1  UNL1        0.1895
     13 O         141.4164  141.4766  162.6746 O.3     1  UNL1       -0.4686
     14 C         140.0566  141.6104  163.2934 C.3     1  UNL1        0.2104
     15 C         138.9349  142.2288  162.5127 C.3     1  UNL1        0.1779
     16 C         137.5750  142.3626  163.1315 C.3     1  UNL1        0.0300
     17 S         139.1730  142.7133  161.1133 S.O2    1  UNL1        0.0138
     18 O         138.9068  143.3172  159.7662 O.2     1  UNL1       -0.1685
     19 O         137.7207  143.0569  161.2642 O.2     1  UNL1       -0.1685
     20 C         144.9573  142.0526  162.3665 C.3     1  UNL1        0.2526
     21 O         144.1361  141.2089  161.4371 O.3     1  UNL1       -0.4683
     22 O         139.1037  139.6724  168.8913 O.3     1  UNL1       -0.4754
     23 C         139.9476  140.1902  170.0181 C.3     1  UNL1        0.2068
     24 C         141.2568  139.5320  170.3385 C.3     1  UNL1        0.0646
     25 C         142.5453  140.2114  169.9804 C.3     1  UNL1        0.0759
     26 N         142.8149  140.6069  168.5589 N.3     1  UNL1       -0.2726
     27 C         142.8225  139.5656  167.4792 C.3     1  UNL1        0.0721
     28 C         143.0921  139.9612  166.0576 C.3     1  UNL1        0.0174
     29 C         143.3540  141.3980  165.7157 C.3     1  UNL1        0.0029
     30 C         143.3464  142.4393  166.7954 C.3     1  UNL1        0.0174
     31 C         143.0769  142.0438  168.2169 C.3     1  UNL1        0.0721
@<TRIPOS>BOND
     1    20    21    1
     2    21     7    1
     3     7     8   ar
     4     8     9   ar
     5     9    10   ar
     6    10    11   ar
     7    11    12   ar
     8    12    13    1
     9    13    14    1
    10    14     1    1
    11     1     2   ar
    12     2     3   ar
    13     3     4   ar
    14     4    22    1
    15    22    23    1
    16    23    24    1
    17    24    25    1
    18    25    26    1
    19    26    27    1
    20    27    28    1
    21    28    29    1
    22    29    30    1
    23    30    31    1
    24     4     5   ar
    25     5     6   ar
    26    14    15    1
    27    15    16    1
    28    15    17    1
    29    17    18    2
    30    17    19    2
    31    12     7   ar
    32     6     1   ar
    33    17    11    1
    34    31    26    1
@<TRIPOS>MOLECULE
*****
 31 34 0 0 0
SMALL
GASTEIGER

@<TRIPOS>ATOM
      1 C         139.2080  140.3500  164.2172 C.ar    1  UNL1        0.0191
      2 C         139.6328  139.2153  163.3329 C.ar    1  UNL1        0.0023
      3 C         139.0403  139.0699  161.9626 C.ar    1  UNL1        0.0367
      4 C         138.0231  140.0593  161.4766 C.ar    1  UNL1        0.1385
      5 C         137.5983  141.1940  162.3609 C.ar    1  UNL1        0.0367
      6 C         138.1907  141.3393  163.7312 C.ar    1  UNL1        0.0023
      7 C         142.9233  142.2064  167.3399 C.ar    1  UNL1        0.1737
      8 C         143.5157  142.3517  168.7102 C.ar    1  UNL1        0.0401
      9 C         142.8431  141.7140  169.8896 C.ar    1  UNL1        0.0046
     10 C         141.5780  140.9311  169.6986 C.ar    1  UNL1        0.0217
     11 C         140.9856  140.7858  168.3283 C.ar    1  UNL1        0.1426
     12 C         141.6582  141.4235  167.1489 C.ar    1  UNL1        0.1895
     13 O         141.0656  141.2782  165.7785 O.3     1  UNL1       -0.4686
     14 C         139.8005  140.4953  165.5876 C.3     1  UNL1        0.2104
     15 C         139.1279  139.8576  166.7670 C.3     1  UNL1        0.1779
     16 C         137.8628  139.0746  166.5760 C.3     1  UNL1        0.0300
     17 S         139.7204  140.0029  168.1373 S.O2    1  UNL1        0.0138
     18 O         139.8945  139.8589  169.6202 O.2     1  UNL1       -0.1685
     19 O         138.5157  139.1699  168.4614 O.2     1  UNL1       -0.1685
     20 C         144.2167  141.9872  165.0974 C.3     1  UNL1        0.2526
     21 O         143.5959  142.8441  166.1605 O.3     1  UNL1       -0.4683
     22 O         137.4305  139.9140  160.1062 O.3     1  UNL1       -0.4754
     23 C         138.1379  140.4949  158.9178 C.3     1  UNL1        0.2068
     24 C         138.2814  141.9819  158.7834 C.3     1  UNL1        0.0646
     25 C         139.6305  142.6213  158.9280 C.3     1  UNL1        0.0759
     26 N         140.2027  142.8647  160.2931 N.3     1  UNL1       -0.2726
     27 C         141.1733  141.8861  160.8848 C.3     1  UNL1        0.0721
     28 C         141.7455  142.1295  162.2500 C.3     1  UNL1        0.0174
     29 C         141.3470  143.3515  163.0232 C.3     1  UNL1        0.0029
     30 C         140.3764  144.3301  162.4314 C.3     1  UNL1        0.0174
     31 C         139.8042  144.0867  161.0664 C.3     1  UNL1        0.0721
@<TRIPOS>BOND
     1    20    21    1
     2    21     7    1
     3     7     8   ar
     4     8     9   ar
     5     9    10   ar
     6    10    11   ar
     7    11    12   ar
     8    12    13    1
     9    13    14    1
    10    14     1    1
    11     1     2   ar
    12     2     3   ar
    13     3     4   ar
    14     4    22    1
    15    22    23    1
    16    23    24    1
    17    24    25    1
    18    25    26    1
    19    26    27    1
    20    27    28    1
    21    28    29    1
    22    29    30    1
    23    30    31    1
    24     4     5   ar
    25     5     6   ar
    26    14    15    1
    27    15    16    1
    28    15    17    1
    29    17    18    2
    30    17    19    2
    31    12     7   ar
    32     6     1   ar
    33    17    11    1
    34    31    26    1
@<TRIPOS>MOLECULE
*****
 31 34 0 0 0
SMALL
GASTEIGER

@<TRIPOS>ATOM
      1 C         139.5713  139.4314  165.0506 C.ar    1  UNL1        0.0191
      2 C         140.1494  138.1334  164.5698 C.ar    1  UNL1        0.0023
      3 C         139.8126  137.6241  163.1998 C.ar    1  UNL1        0.0367
      4 C         138.8977  138.4128  162.3104 C.ar    1  UNL1        0.1385
      5 C         138.3196  139.7108  162.7912 C.ar    1  UNL1        0.0367
      6 C         138.6564  140.2200  164.1613 C.ar    1  UNL1        0.0023
      7 C         142.7253  142.0830  168.2164 C.ar    1  UNL1        0.1737
      8 C         143.0620  142.5922  169.5865 C.ar    1  UNL1        0.0401
      9 C         142.1587  142.2849  170.7438 C.ar    1  UNL1        0.0046
     10 C         140.9185  141.4684  170.5311 C.ar    1  UNL1        0.0217
     11 C         140.5818  140.9591  169.1610 C.ar    1  UNL1        0.1426
     12 C         141.4851  141.2664  168.0036 C.ar    1  UNL1        0.1895
     13 O         141.1483  140.7572  166.6335 O.3     1  UNL1       -0.4686
     14 C         139.9081  139.9407  166.4208 C.3     1  UNL1        0.2104
     15 C         139.0048  139.6334  167.5781 C.3     1  UNL1        0.1779
     16 C         137.7646  138.8168  167.3653 C.3     1  UNL1        0.0300
     17 S         139.3416  140.1426  168.9482 S.O2    1  UNL1        0.0138
     18 O         139.2348  140.3992  170.4223 O.2     1  UNL1       -0.1685
     19 O         138.0643  139.4151  169.2474 O.2     1  UNL1       -0.1685
     20 C         143.0865  143.0950  165.8510 C.3     1  UNL1        0.2526
     21 O         143.6286  142.3903  167.0590 O.3     1  UNL1       -0.4683
     22 O         138.5609  137.9035  160.9403 O.3     1  UNL1       -0.4754
     23 C         139.3927  138.3149  159.7618 C.3     1  UNL1        0.2068
     24 C         139.8039  139.7480  159.5977 C.3     1  UNL1        0.0646
     25 C         141.2499  140.1310  159.7095 C.3     1  UNL1        0.0759
     26 N         142.0169  139.8081  160.9574 N.3     1  UNL1       -0.2726
     27 C         142.8337  138.5522  161.0319 C.3     1  UNL1        0.0721
     28 C         143.6008  138.2293  162.2800 C.3     1  UNL1        0.0174
     29 C         143.5510  139.1623  163.4534 C.3     1  UNL1        0.0029
     30 C         142.7342  140.4182  163.3789 C.3     1  UNL1        0.0174
     31 C         141.9672  140.7411  162.1309 C.3     1  UNL1        0.0721
@<TRIPOS>BOND
     1    20    21    1
     2    21     7    1
     3     7     8   ar
     4     8     9   ar
     5     9    10   ar
     6    10    11   ar
     7    11    12   ar
     8    12    13    1
     9    13    14    1
    10    14     1    1
    11     1     2   ar
    12     2     3   ar
    13     3     4   ar
    14     4    22    1
    15    22    23    1
    16    23    24    1
    17    24    25    1
    18    25    26    1
    19    26    27    1
    20    27    28    1
    21    28    29    1
    22    29    30    1
    23    30    31    1
    24     4     5   ar
    25     5     6   ar
    26    14    15    1
    27    15    16    1
    28    15    17    1
    29    17    18    2
    30    17    19    2
    31    12     7   ar
    32     6     1   ar
    33    17    11    1
    34    31    26    1
@<TRIPOS>MOLECULE
*****
 31 34 0 0 0
SMALL
GASTEIGER

@<TRIPOS>ATOM
      1 C         139.1967  140.3235  164.5005 C.ar    1  UNL1        0.0191
      2 C         138.4792  139.1105  165.0141 C.ar    1  UNL1        0.0023
      3 C         138.3679  138.8743  166.4912 C.ar    1  UNL1        0.0367
      4 C         138.9739  139.8511  167.4547 C.ar    1  UNL1        0.1385
      5 C         139.6914  141.0642  166.9411 C.ar    1  UNL1        0.0367
      6 C         139.8028  141.3004  165.4640 C.ar    1  UNL1        0.0023
      7 C         141.2172  139.0647  159.8817 C.ar    1  UNL1        0.1737
      8 C         141.3285  139.3009  158.4047 C.ar    1  UNL1        0.0401
      9 C         140.5409  140.4027  157.7598 C.ar    1  UNL1        0.0046
     10 C         139.6420  141.2682  158.5921 C.ar    1  UNL1        0.0217
     11 C         139.5307  141.0320  160.0691 C.ar    1  UNL1        0.1426
     12 C         140.3183  139.9303  160.7140 C.ar    1  UNL1        0.1895
     13 O         140.2070  139.6941  162.1911 O.3     1  UNL1       -0.4686
     14 C         139.3080  140.5597  163.0234 C.3     1  UNL1        0.2104
     15 C         138.5204  141.6614  162.3785 C.3     1  UNL1        0.1779
     16 C         137.6214  142.5270  163.2109 C.3     1  UNL1        0.0300
     17 S         138.6317  141.8976  160.9015 S.O2    1  UNL1        0.0138
     18 O         138.4033  142.5080  159.5504 O.2     1  UNL1       -0.1685
     19 O         137.6534  142.9752  161.2646 O.2     1  UNL1       -0.1685
     20 C         143.4057  138.2190  160.9976 C.3     1  UNL1        0.2526
     21 O         142.0049  137.9630  160.5266 O.3     1  UNL1       -0.4683
     22 O         138.8626  139.6150  168.9318 O.3     1  UNL1       -0.4754
     23 C         139.8444  140.2529  169.8694 C.3     1  UNL1        0.2068
     24 C         141.1868  139.6220  170.0928 C.3     1  UNL1        0.0646
     25 C         142.4365  140.3724  169.7387 C.3     1  UNL1        0.0759
     26 N         142.7686  140.6400  168.3007 N.3     1  UNL1       -0.2726
     27 C         143.0246  142.0440  167.8388 C.3     1  UNL1        0.0721
     28 C         143.3568  142.3115  166.4006 C.3     1  UNL1        0.0174
     29 C         143.4330  141.1752  165.4245 C.3     1  UNL1        0.0029
     30 C         143.1771  139.7712  165.8865 C.3     1  UNL1        0.0174
     31 C         142.8449  139.5036  167.3245 C.3     1  UNL1        0.0721
@<TRIPOS>BOND
     1    20    21    1
     2    21     7    1
     3     7     8   ar
     4     8     9   ar
     5     9    10   ar
     6    10    11   ar
     7    11    12   ar
     8    12    13    1
     9    13    14    1
    10    14     1    1
    11     1     2   ar
    12     2     3   ar
    13     3     4   ar
    14     4    22    1
    15    22    23    1
    16    23    24    1
    17    24    25    1
    18    25    26    1
    19    26    27    1
    20    27    28    1
    21    28    29    1
    22    29    30    1
    23    30    31    1
    24     4     5   ar
    25     5     6   ar
    26    14    15    1
    27    15    16    1
    28    15    17    1
    29    17    18    2
    30    17    19    2
    31    12     7   ar
    32     6     1   ar
    33    17    11    1
    34    31    26    1
@<TRIPOS>MOLECULE
*****
 31 34 0 0 0
SMALL
GASTEIGER

@<TRIPOS>ATOM
      1 C         141.5141  139.9002  164.2960 C.ar    1  UNL1        0.0191
      2 C         142.4561  138.7767  163.9791 C.ar    1  UNL1        0.0023
      3 C         142.9784  138.6068  162.5833 C.ar    1  UNL1        0.0367
      4 C         142.5587  139.5605  161.5043 C.ar    1  UNL1        0.1385
      5 C         141.6168  140.6841  161.8211 C.ar    1  UNL1        0.0367
      6 C         141.0945  140.8539  163.2170 C.ar    1  UNL1        0.0023
      7 C         142.0157  141.8641  169.0805 C.ar    1  UNL1        0.1737
      8 C         141.4934  142.0339  170.4763 C.ar    1  UNL1        0.0401
      9 C         140.1980  141.3916  170.8758 C.ar    1  UNL1        0.0046
     10 C         139.4250  140.5795  169.8794 C.ar    1  UNL1        0.0217
     11 C         139.9473  140.4097  168.4836 C.ar    1  UNL1        0.1426
     12 C         141.2426  141.0520  168.0841 C.ar    1  UNL1        0.1895
     13 O         141.7649  140.8822  166.6882 O.3     1  UNL1       -0.4686
     14 C         140.9919  140.0701  165.6919 C.3     1  UNL1        0.2104
     15 C         139.6965  139.4278  166.0913 C.3     1  UNL1        0.1779
     16 C         138.9235  138.6156  165.0948 C.3     1  UNL1        0.0300
     17 S         139.1742  139.5975  167.4871 S.O2    1  UNL1        0.0138
     18 O         138.2750  139.4699  168.6809 O.2     1  UNL1       -0.1685
     19 O         138.0889  138.7411  166.9052 O.2     1  UNL1       -0.1685
     20 C         144.3789  142.7426  169.7076 C.3     1  UNL1        0.2526
     21 O         143.3110  142.5064  168.6811 O.3     1  UNL1       -0.4683
     22 O         143.0810  139.3907  160.1084 O.3     1  UNL1       -0.4754
     23 C         144.0409  140.3933  159.5397 C.3     1  UNL1        0.2068
     24 C         143.8007  141.8600  159.7418 C.3     1  UNL1        0.0646
     25 C         144.7692  142.6747  160.5470 C.3     1  UNL1        0.0759
     26 N         144.6218  142.7580  162.0373 N.3     1  UNL1       -0.2726
     27 C         145.1602  141.6607  162.9068 C.3     1  UNL1        0.0721
     28 C         145.0127  141.7441  164.3973 C.3     1  UNL1        0.0174
     29 C         144.3268  142.9248  165.0182 C.3     1  UNL1        0.0029
     30 C         143.7885  144.0221  164.1487 C.3     1  UNL1        0.0174
     31 C         143.9359  143.9388  162.6583 C.3     1  UNL1        0.0721
@<TRIPOS>BOND
     1    20    21    1
     2    21     7    1
     3     7     8   ar
     4     8     9   ar
     5     9    10   ar
     6    10    11   ar
     7    11    12   ar
     8    12    13    1
     9    13    14    1
    10    14     1    1
    11     1     2   ar
    12     2     3   ar
    13     3     4   ar
    14     4    22    1
    15    22    23    1
    16    23    24    1
    17    24    25    1
    18    25    26    1
    19    26    27    1
    20    27    28    1
    21    28    29    1
    22    29    30    1
    23    30    31    1
    24     4     5   ar
    25     5     6   ar
    26    14    15    1
    27    15    16    1
    28    15    17    1
    29    17    18    2
    30    17    19    2
    31    12     7   ar
    32     6     1   ar
    33    17    11    1
    34    31    26    1
@<TRIPOS>MOLECULE
*****
 31 34 0 0 0
SMALL
GASTEIGER

@<TRIPOS>ATOM
      1 C         139.6417  141.6702  164.2011 C.ar    1  UNL1        0.0191
      2 C         140.6022  141.6005  163.0510 C.ar    1  UNL1        0.0023
      3 C         140.1361  141.9293  161.6637 C.ar    1  UNL1        0.0367
      4 C         138.7096  142.3277  161.4265 C.ar    1  UNL1        0.1385
      5 C         137.7492  142.3974  162.5767 C.ar    1  UNL1        0.0367
      6 C         138.2152  142.0687  163.9640 C.ar    1  UNL1        0.0023
      7 C         143.0977  142.2370  168.0398 C.ar    1  UNL1        0.1737
      8 C         143.5638  141.9082  169.4271 C.ar    1  UNL1        0.0401
      9 C         142.7681  140.9673  170.2824 C.ar    1  UNL1        0.0046
     10 C         141.5063  140.3552  169.7504 C.ar    1  UNL1        0.0217
     11 C         141.0402  140.6840  168.3632 C.ar    1  UNL1        0.1426
     12 C         141.8359  141.6249  167.5078 C.ar    1  UNL1        0.1895
     13 O         141.3697  141.9536  166.1205 O.3     1  UNL1       -0.4686
     14 C         140.1079  141.3415  165.5885 C.3     1  UNL1        0.2104
     15 C         139.3122  140.4006  166.4438 C.3     1  UNL1        0.1779
     16 C         138.0503  139.7885  165.9118 C.3     1  UNL1        0.0300
     17 S         139.7783  140.0718  167.8311 S.O2    1  UNL1        0.0138
     18 O         139.8100  139.4562  169.1986 O.2     1  UNL1       -0.1685
     19 O         138.5274  139.2459  167.7740 O.2     1  UNL1       -0.1685
     20 C         144.1101  142.8704  165.7325 C.3     1  UNL1        0.2526
     21 O         143.8935  143.1779  167.1845 O.3     1  UNL1       -0.4683
     22 O         138.2434  142.6564  160.0392 O.3     1  UNL1       -0.4754
     23 C         138.4378  141.6672  158.9285 C.3     1  UNL1        0.2068
     24 C         138.0675  140.2280  159.1327 C.3     1  UNL1        0.0646
     25 C         139.1409  139.1873  159.2541 C.3     1  UNL1        0.0759
     26 N         139.5002  138.6342  160.6013 N.3     1  UNL1       -0.2726
     27 C         138.4270  138.3785  161.6176 C.3     1  UNL1        0.0721
     28 C         138.7864  137.8254  162.9649 C.3     1  UNL1        0.0174
     29 C         140.2188  137.5278  163.2957 C.3     1  UNL1        0.0029
     30 C         141.2920  137.7834  162.2793 C.3     1  UNL1        0.0174
     31 C         140.9327  138.3366  160.9321 C.3     1  UNL1        0.0721
@<TRIPOS>BOND
     1    20    21    1
     2    21     7    1
     3     7     8   ar
     4     8     9   ar
     5     9    10   ar
     6    10    11   ar
     7    11    12   ar
     8    12    13    1
     9    13    14    1
    10    14     1    1
    11     1     2   ar
    12     2     3   ar
    13     3     4   ar
    14     4    22    1
    15    22    23    1
    16    23    24    1
    17    24    25    1
    18    25    26    1
    19    26    27    1
    20    27    28    1
    21    28    29    1
    22    29    30    1
    23    30    31    1
    24     4     5   ar
    25     5     6   ar
    26    14    15    1
    27    15    16    1
    28    15    17    1
    29    17    18    2
    30    17    19    2
    31    12     7   ar
    32     6     1   ar
    33    17    11    1
    34    31    26    1
@<TRIPOS>MOLECULE
*****
 31 34 0 0 0
SMALL
GASTEIGER

@<TRIPOS>ATOM
      1 C         141.1365  142.6987  164.6832 C.ar    1  UNL1        0.0191
      2 C         142.5990  142.4757  164.9310 C.ar    1  UNL1        0.0023
      3 C         143.1142  142.3703  166.3358 C.ar    1  UNL1        0.0367
      4 C         142.1669  142.4880  167.4928 C.ar    1  UNL1        0.1385
      5 C         140.7044  142.7111  167.2450 C.ar    1  UNL1        0.0367
      6 C         140.1892  142.8165  165.8402 C.ar    1  UNL1        0.0023
      7 C         139.0543  140.4728  160.4749 C.ar    1  UNL1        0.1737
      8 C         138.5392  140.5782  159.0701 C.ar    1  UNL1        0.0401
      9 C         138.5501  141.9019  158.3645 C.ar    1  UNL1        0.0046
     10 C         139.0761  143.1202  159.0638 C.ar    1  UNL1        0.0217
     11 C         139.5912  143.0148  160.4686 C.ar    1  UNL1        0.1426
     12 C         139.5803  141.6911  161.1741 C.ar    1  UNL1        0.1895
     13 O         140.0954  141.5858  162.5790 O.3     1  UNL1       -0.4686
     14 C         140.6214  142.8041  163.2783 C.3     1  UNL1        0.2104
     15 C         140.6323  144.1278  162.5728 C.3     1  UNL1        0.1779
     16 C         141.1583  145.3461  163.2722 C.3     1  UNL1        0.0300
     17 S         140.1172  144.2331  161.1680 S.O2    1  UNL1        0.0138
     18 O         139.7391  144.8341  159.8466 O.2     1  UNL1       -0.1685
     19 O         140.5119  145.6602  161.4084 O.2     1  UNL1       -0.1685
     20 C         137.7847  138.6559  161.8302 C.3     1  UNL1        0.2526
     21 O         139.0434  139.1492  161.1804 O.3     1  UNL1       -0.4683
     22 O         142.6820  142.3827  168.8976 O.3     1  UNL1       -0.4754
     23 C         142.8935  141.0343  169.5198 C.3     1  UNL1        0.2068
     24 C         142.2083  139.8287  168.9480 C.3     1  UNL1        0.0646
     25 C         142.9435  138.9266  168.0016 C.3     1  UNL1        0.0759
     26 N         142.5834  138.9136  166.5455 N.3     1  UNL1       -0.2726
     27 C         143.6557  138.7513  165.5092 C.3     1  UNL1        0.0721
     28 C         143.2955  138.7383  164.0530 C.3     1  UNL1        0.0174
     29 C         141.8633  138.8877  163.6333 C.3     1  UNL1        0.0029
     30 C         140.7910  139.0500  164.6696 C.3     1  UNL1        0.0174
     31 C         141.1511  139.0630  166.1257 C.3     1  UNL1        0.0721
@<TRIPOS>BOND
     1    20    21    1
     2    21     7    1
     3     7     8   ar
     4     8     9   ar
     5     9    10   ar
     6    10    11   ar
     7    11    12   ar
     8    12    13    1
     9    13    14    1
    10    14     1    1
    11     1     2   ar
    12     2     3   ar
    13     3     4   ar
    14     4    22    1
    15    22    23    1
    16    23    24    1
    17    24    25    1
    18    25    26    1
    19    26    27    1
    20    27    28    1
    21    28    29    1
    22    29    30    1
    23    30    31    1
    24     4     5   ar
    25     5     6   ar
    26    14    15    1
    27    15    16    1
    28    15    17    1
    29    17    18    2
    30    17    19    2
    31    12     7   ar
    32     6     1   ar
    33    17    11    1
    34    31    26    1
@<TRIPOS>MOLECULE
*****
 31 34 0 0 0
SMALL
GASTEIGER

@<TRIPOS>ATOM
      1 C         141.3819  142.5925  163.5038 C.ar    1  UNL1        0.0191
      2 C         142.3482  143.0281  164.5652 C.ar    1  UNL1        0.0023
      3 C         142.4962  142.2218  165.8213 C.ar    1  UNL1        0.0367
      4 C         141.6778  140.9800  166.0162 C.ar    1  UNL1        0.1385
      5 C         140.7114  140.5444  164.9548 C.ar    1  UNL1        0.0367
      6 C         140.5634  141.3507  163.6987 C.ar    1  UNL1        0.0023
      7 C         142.7672  143.5643  158.5909 C.ar    1  UNL1        0.1737
      8 C         142.6192  144.3706  157.3348 C.ar    1  UNL1        0.0401
      9 C         141.6307  145.4974  157.2789 C.ar    1  UNL1        0.0046
     10 C         140.7901  145.8179  158.4792 C.ar    1  UNL1        0.0217
     11 C         140.9380  145.0115  159.7353 C.ar    1  UNL1        0.1426
     12 C         141.9266  143.8847  159.7911 C.ar    1  UNL1        0.1895
     13 O         142.0745  143.0784  161.0474 O.3     1  UNL1       -0.4686
     14 C         141.2339  143.3989  162.2476 C.3     1  UNL1        0.2104
     15 C         140.2454  144.5257  162.1918 C.3     1  UNL1        0.1779
     16 C         139.4048  144.8461  163.3921 C.3     1  UNL1        0.0300
     17 S         140.0974  145.3320  160.9356 S.O2    1  UNL1        0.0138
     18 O         139.5972  146.3755  159.9812 O.2     1  UNL1       -0.1685
     19 O         139.0831  146.0149  161.8045 O.2     1  UNL1       -0.1685
     20 C         144.8537  142.3519  157.6284 C.3     1  UNL1        0.2526
     21 O         143.7557  142.4375  158.6467 O.3     1  UNL1       -0.4683
     22 O         141.8257  140.1736  167.2724 O.3     1  UNL1       -0.4754
     23 C         142.9142  139.1473  167.3810 C.3     1  UNL1        0.2068
     24 C         143.3431  138.3776  166.1670 C.3     1  UNL1        0.0646
     25 C         144.6321  138.7184  165.4797 C.3     1  UNL1        0.0759
     26 N         144.6232  139.5869  164.2568 N.3     1  UNL1       -0.2726
     27 C         143.7589  139.2243  163.0857 C.3     1  UNL1        0.0721
     28 C         143.7501  140.0929  161.8627 C.3     1  UNL1        0.0174
     29 C         144.6054  141.3240  161.8110 C.3     1  UNL1        0.0029
     30 C         145.4697  141.6866  162.9821 C.3     1  UNL1        0.0174
     31 C         145.4786  140.8180  164.2050 C.3     1  UNL1        0.0721
@<TRIPOS>BOND
     1    20    21    1
     2    21     7    1
     3     7     8   ar
     4     8     9   ar
     5     9    10   ar
     6    10    11   ar
     7    11    12   ar
     8    12    13    1
     9    13    14    1
    10    14     1    1
    11     1     2   ar
    12     2     3   ar
    13     3     4   ar
    14     4    22    1
    15    22    23    1
    16    23    24    1
    17    24    25    1
    18    25    26    1
    19    26    27    1
    20    27    28    1
    21    28    29    1
    22    29    30    1
    23    30    31    1
    24     4     5   ar
    25     5     6   ar
    26    14    15    1
    27    15    16    1
    28    15    17    1
    29    17    18    2
    30    17    19    2
    31    12     7   ar
    32     6     1   ar
    33    17    11    1
    34    31    26    1
