@<TRIPOS>MOLECULE
*****
 25 28 0 0 0
SMALL
GASTEIGER

@<TRIPOS>ATOM
      1 C         143.1664  143.2571  170.6212 C.3     1  UNL1        0.0307
      2 C         142.4234  142.4999  169.5607 C.ar    1  UNL1       -0.0242
      3 C         143.0817  141.3478  168.8613 C.ar    1  UNL1        0.0160
      4 C         142.3387  140.5906  167.8008 C.ar    1  UNL1        0.0980
      5 N         142.7253  139.4201  166.9460 N.ar    1  UNL1       -0.2310
      6 C         141.5629  139.0918  166.0566 C.ar    1  UNL1        0.1205
      7 N         140.4580  140.0593  166.3617 N.ar    1  UNL1       -0.3107
      8 C         140.9374  140.9856  167.4397 C.ar    1  UNL1        0.0785
      9 C         140.2792  142.1377  168.1391 C.ar    1  UNL1        0.0142
     10 C         141.0222  142.8949  169.1996 C.ar    1  UNL1       -0.0243
     11 C         140.3638  144.0471  169.8990 C.3     1  UNL1        0.0307
     12 C         141.5140  137.9894  165.0405 C.3     1  UNL1        0.0639
     13 C         141.3376  138.3162  163.5872 C.3     1  UNL1        0.0075
     14 C         142.1177  139.3362  162.8120 C.3     1  UNL1        0.0004
     15 C         141.6124  139.3309  161.3996 C.3     1  UNL1        0.0000
     16 C         140.5200  138.3076  161.3020 C.3     1  UNL1        0.0000
     17 C         140.3502  137.6805  162.6540 C.3     1  UNL1        0.0004
     18 C         139.1101  140.0943  165.7044 C.3     1  UNL1        0.1339
     19 C         138.9493  140.7331  164.3568 C.ar    1  UNL1        0.0005
     20 C         139.8602  141.8507  163.9430 C.ar    1  UNL1       -0.0015
     21 C         139.6994  142.4896  162.5954 C.ar    1  UNL1        0.0111
     22 C         138.6277  142.0108  161.6615 C.ar    1  UNL1        0.0577
     23 CL        138.4668  142.6496  160.3140 Cl      1  UNL1       -0.0822
     24 C         137.7167  140.8933  162.0752 C.ar    1  UNL1        0.0111
     25 C         137.8775  140.2544  163.4229 C.ar    1  UNL1       -0.0015
@<TRIPOS>BOND
     1     1     2    1
     2     2     3   ar
     3     3     4   ar
     4     4     5   ar
     5     5     6   ar
     6     6    12    1
     7    12    13    1
     8    13    14    1
     9    14    15    1
    10    15    16    1
    11    16    17    1
    12     6     7   ar
    13     7    18    1
    14    18    19    1
    15    19    20   ar
    16    20    21   ar
    17    21    22   ar
    18    22    23    1
    19    22    24   ar
    20    24    25   ar
    21     7     8   ar
    22     8     9   ar
    23     9    10   ar
    24    10    11    1
    25    10     2   ar
    26     8     4   ar
    27    17    13    1
    28    25    19   ar
@<TRIPOS>MOLECULE
*****
 25 28 0 0 0
SMALL
GASTEIGER

@<TRIPOS>ATOM
      1 C         140.7290  142.1019  171.0424 C.3     1  UNL1        0.0307
      2 C         140.8774  141.3586  169.7480 C.ar    1  UNL1       -0.0242
      3 C         139.6712  140.7695  169.0789 C.ar    1  UNL1        0.0160
      4 C         139.8196  140.0261  167.7845 C.ar    1  UNL1        0.0980
      5 N         138.8199  139.3421  166.8995 N.ar    1  UNL1       -0.2310
      6 C         139.5569  138.7652  165.7274 C.ar    1  UNL1        0.1205
      7 N         141.0119  139.0926  165.8878 N.ar    1  UNL1       -0.3107
      8 C         141.1742  139.8719  167.1592 C.ar    1  UNL1        0.0785
      9 C         142.3805  140.4611  167.8283 C.ar    1  UNL1        0.0142
     10 C         142.2321  141.2044  169.1227 C.ar    1  UNL1       -0.0243
     11 C         143.4385  141.7935  169.7918 C.3     1  UNL1        0.0307
     12 C         138.9461  137.9959  164.5937 C.3     1  UNL1        0.0639
     13 C         138.4894  138.7152  163.3592 C.3     1  UNL1        0.0075
     14 C         138.3390  138.1140  161.9933 C.3     1  UNL1        0.0004
     15 C         137.8595  139.1893  161.0638 C.3     1  UNL1        0.0000
     16 C         137.7136  140.4550  161.8553 C.3     1  UNL1        0.0000
     17 C         138.1029  140.1620  163.2740 C.3     1  UNL1        0.0004
     18 C         142.1116  138.7083  164.9429 C.3     1  UNL1        0.1339
     19 C         141.9771  138.9990  163.4775 C.ar    1  UNL1        0.0005
     20 C         142.0625  137.8817  162.4803 C.ar    1  UNL1       -0.0015
     21 C         141.9280  138.1724  161.0149 C.ar    1  UNL1        0.0111
     22 C         141.7081  139.5804  160.5466 C.ar    1  UNL1        0.0577
     23 CL        141.5736  139.8711  159.0813 Cl      1  UNL1       -0.0822
     24 C         141.6227  140.6977  161.5438 C.ar    1  UNL1        0.0111
     25 C         141.7572  140.4070  163.0093 C.ar    1  UNL1       -0.0015
@<TRIPOS>BOND
     1     1     2    1
     2     2     3   ar
     3     3     4   ar
     4     4     5   ar
     5     5     6   ar
     6     6    12    1
     7    12    13    1
     8    13    14    1
     9    14    15    1
    10    15    16    1
    11    16    17    1
    12     6     7   ar
    13     7    18    1
    14    18    19    1
    15    19    20   ar
    16    20    21   ar
    17    21    22   ar
    18    22    23    1
    19    22    24   ar
    20    24    25   ar
    21     7     8   ar
    22     8     9   ar
    23     9    10   ar
    24    10    11    1
    25    10     2   ar
    26     8     4   ar
    27    17    13    1
    28    25    19   ar
@<TRIPOS>MOLECULE
*****
 25 28 0 0 0
SMALL
GASTEIGER

@<TRIPOS>ATOM
      1 C         140.8766  142.6215  170.7756 C.3     1  UNL1        0.0307
      2 C         141.0064  141.7389  169.5697 C.ar    1  UNL1       -0.0242
      3 C         139.7878  141.0976  168.9750 C.ar    1  UNL1        0.0160
      4 C         139.9175  140.2151  167.7691 C.ar    1  UNL1        0.0980
      5 N         138.9029  139.4528  166.9693 N.ar    1  UNL1       -0.2310
      6 C         139.6242  138.7405  165.8638 C.ar    1  UNL1        0.1205
      7 N         141.0847  139.0625  165.9803 N.ar    1  UNL1       -0.3107
      8 C         141.2659  139.9738  167.1579 C.ar    1  UNL1        0.0785
      9 C         142.4845  140.6151  167.7525 C.ar    1  UNL1        0.0142
     10 C         142.3547  141.4977  168.9584 C.ar    1  UNL1       -0.0243
     11 C         143.5734  142.1390  169.5531 C.3     1  UNL1        0.0307
     12 C         138.9956  137.8607  164.8242 C.3     1  UNL1        0.0639
     13 C         138.9544  138.3039  163.3918 C.3     1  UNL1        0.0075
     14 C         139.7348  137.7034  162.2603 C.3     1  UNL1        0.0004
     15 C         139.3883  138.4539  161.0085 C.3     1  UNL1        0.0000
     16 C         138.3938  139.5182  161.3665 C.3     1  UNL1        0.0000
     17 C         138.1256  139.4255  162.8394 C.3     1  UNL1        0.0004
     18 C         142.1728  138.5612  165.0777 C.3     1  UNL1        0.1339
     19 C         142.9237  139.5211  164.2033 C.ar    1  UNL1        0.0005
     20 C         144.3955  139.7271  164.4067 C.ar    1  UNL1       -0.0015
     21 C         145.1465  140.6870  163.5323 C.ar    1  UNL1        0.0111
     22 C         144.4256  141.4410  162.4544 C.ar    1  UNL1        0.0577
     23 CL        145.1765  142.4009  161.5800 Cl      1  UNL1       -0.0822
     24 C         142.9538  141.2351  162.2509 C.ar    1  UNL1        0.0111
     25 C         142.2028  140.2751  163.1254 C.ar    1  UNL1       -0.0015
@<TRIPOS>BOND
     1     1     2    1
     2     2     3   ar
     3     3     4   ar
     4     4     5   ar
     5     5     6   ar
     6     6    12    1
     7    12    13    1
     8    13    14    1
     9    14    15    1
    10    15    16    1
    11    16    17    1
    12     6     7   ar
    13     7    18    1
    14    18    19    1
    15    19    20   ar
    16    20    21   ar
    17    21    22   ar
    18    22    23    1
    19    22    24   ar
    20    24    25   ar
    21     7     8   ar
    22     8     9   ar
    23     9    10   ar
    24    10    11    1
    25    10     2   ar
    26     8     4   ar
    27    17    13    1
    28    25    19   ar
@<TRIPOS>MOLECULE
*****
 25 28 0 0 0
SMALL
GASTEIGER

@<TRIPOS>ATOM
      1 C         142.4086  140.3056  170.9859 C.3     1  UNL1        0.0307
      2 C         142.3976  140.6608  169.5287 C.ar    1  UNL1       -0.0242
      3 C         141.5487  139.8772  168.5720 C.ar    1  UNL1        0.0160
      4 C         141.5377  140.2324  167.1148 C.ar    1  UNL1        0.0980
      5 N         140.8065  139.6452  165.9440 N.ar    1  UNL1       -0.2310
      6 C         141.1926  140.4212  164.7198 C.ar    1  UNL1        0.1205
      7 N         142.1624  141.4879  165.1339 N.ar    1  UNL1       -0.3107
      8 C         142.3757  141.3713  166.6141 C.ar    1  UNL1        0.0785
      9 C         143.2246  142.1549  167.5707 C.ar    1  UNL1        0.0142
     10 C         143.2356  141.7997  169.0280 C.ar    1  UNL1       -0.0243
     11 C         144.0846  142.5834  169.9846 C.3     1  UNL1        0.0307
     12 C         140.6961  140.1738  163.3261 C.3     1  UNL1        0.0639
     13 C         139.6474  141.0678  162.7338 C.3     1  UNL1        0.0075
     14 C         138.5634  141.7767  163.4904 C.3     1  UNL1        0.0004
     15 C         137.7445  142.5569  162.5051 C.3     1  UNL1        0.0000
     16 C         138.3224  142.3302  161.1396 C.3     1  UNL1        0.0000
     17 C         139.4984  141.4099  161.2809 C.3     1  UNL1        0.0004
     18 C         142.8060  142.4946  164.2271 C.3     1  UNL1        0.1339
     19 C         141.9627  143.5121  163.5174 C.ar    1  UNL1        0.0005
     20 C         140.9168  144.2776  164.2725 C.ar    1  UNL1       -0.0015
     21 C         140.0735  145.2950  163.5629 C.ar    1  UNL1        0.0111
     22 C         140.2760  145.5470  162.0982 C.ar    1  UNL1        0.0577
     23 CL        139.4327  146.5645  161.3885 Cl      1  UNL1       -0.0822
     24 C         141.3219  144.7816  161.3430 C.ar    1  UNL1        0.0111
     25 C         142.1653  143.7641  162.0527 C.ar    1  UNL1       -0.0015
@<TRIPOS>BOND
     1     1     2    1
     2     2     3   ar
     3     3     4   ar
     4     4     5   ar
     5     5     6   ar
     6     6    12    1
     7    12    13    1
     8    13    14    1
     9    14    15    1
    10    15    16    1
    11    16    17    1
    12     6     7   ar
    13     7    18    1
    14    18    19    1
    15    19    20   ar
    16    20    21   ar
    17    21    22   ar
    18    22    23    1
    19    22    24   ar
    20    24    25   ar
    21     7     8   ar
    22     8     9   ar
    23     9    10   ar
    24    10    11    1
    25    10     2   ar
    26     8     4   ar
    27    17    13    1
    28    25    19   ar
@<TRIPOS>MOLECULE
*****
 25 28 0 0 0
SMALL
GASTEIGER

@<TRIPOS>ATOM
      1 C         139.6842  143.0300  170.7630 C.3     1  UNL1        0.0307
      2 C         140.2837  142.2379  169.6390 C.ar    1  UNL1       -0.0242
      3 C         141.3986  142.8206  168.8222 C.ar    1  UNL1        0.0160
      4 C         141.9981  142.0285  167.6982 C.ar    1  UNL1        0.0980
      5 N         143.0989  142.3385  166.7274 N.ar    1  UNL1       -0.2310
      6 C         143.2636  141.1553  165.8203 C.ar    1  UNL1        0.1205
      7 N         142.2647  140.1141  166.2305 N.ar    1  UNL1       -0.3107
      8 C         141.4826  140.6538  167.3911 C.ar    1  UNL1        0.0785
      9 C         140.3676  140.0712  168.2079 C.ar    1  UNL1        0.0142
     10 C         139.7681  140.8632  169.3319 C.ar    1  UNL1       -0.0243
     11 C         138.6531  140.2805  170.1487 C.3     1  UNL1        0.0307
     12 C         144.2535  141.0344  164.6998 C.3     1  UNL1        0.0639
     13 C         143.7725  140.8739  163.2881 C.3     1  UNL1        0.0075
     14 C         144.3958  140.0031  162.2379 C.3     1  UNL1        0.0004
     15 C         143.5921  140.1470  160.9795 C.3     1  UNL1        0.0000
     16 C         142.4721  141.1068  161.2521 C.3     1  UNL1        0.0000
     17 C         142.5835  141.5560  162.6789 C.3     1  UNL1        0.0004
     18 C         142.0803  138.7693  165.5921 C.3     1  UNL1        0.1339
     19 C         141.0839  138.5951  164.4846 C.ar    1  UNL1        0.0005
     20 C         139.6745  139.0774  164.6610 C.ar    1  UNL1       -0.0015
     21 C         138.6779  138.9032  163.5535 C.ar    1  UNL1        0.0111
     22 C         139.0908  138.2467  162.2695 C.ar    1  UNL1        0.0577
     23 CL        138.0943  138.0725  161.1620 Cl      1  UNL1       -0.0822
     24 C         140.5001  137.7644  162.0930 C.ar    1  UNL1        0.0111
     25 C         141.4967  137.9386  163.2006 C.ar    1  UNL1       -0.0015
@<TRIPOS>BOND
     1     1     2    1
     2     2     3   ar
     3     3     4   ar
     4     4     5   ar
     5     5     6   ar
     6     6    12    1
     7    12    13    1
     8    13    14    1
     9    14    15    1
    10    15    16    1
    11    16    17    1
    12     6     7   ar
    13     7    18    1
    14    18    19    1
    15    19    20   ar
    16    20    21   ar
    17    21    22   ar
    18    22    23    1
    19    22    24   ar
    20    24    25   ar
    21     7     8   ar
    22     8     9   ar
    23     9    10   ar
    24    10    11    1
    25    10     2   ar
    26     8     4   ar
    27    17    13    1
    28    25    19   ar
@<TRIPOS>MOLECULE
*****
 25 28 0 0 0
SMALL
GASTEIGER

@<TRIPOS>ATOM
      1 C         141.5878  141.0137  171.4713 C.3     1  UNL1        0.0307
      2 C         141.4397  140.9504  169.9800 C.ar    1  UNL1       -0.0242
      3 C         140.2726  140.2305  169.3721 C.ar    1  UNL1        0.0160
      4 C         140.1244  140.1672  167.8808 C.ar    1  UNL1        0.0980
      5 N         139.0872  139.5342  167.0012 N.ar    1  UNL1       -0.2310
      6 C         139.4653  139.7997  165.5741 C.ar    1  UNL1        0.1205
      7 N         140.7360  140.5967  165.5717 N.ar    1  UNL1       -0.3107
      8 C         141.1434  140.8238  166.9973 C.ar    1  UNL1        0.0785
      9 C         142.3105  141.5437  167.6052 C.ar    1  UNL1        0.0142
     10 C         142.4586  141.6070  169.0965 C.ar    1  UNL1       -0.0243
     11 C         143.6258  142.3270  169.7044 C.3     1  UNL1        0.0307
     12 C         138.7059  139.3475  164.3621 C.3     1  UNL1        0.0639
     13 C         138.3741  140.3275  163.2761 C.3     1  UNL1        0.0075
     14 C         137.6924  141.6508  163.4608 C.3     1  UNL1        0.0004
     15 C         137.5628  142.2974  162.1135 C.3     1  UNL1        0.0000
     16 C         138.1643  141.3738  161.0962 C.3     1  UNL1        0.0000
     17 C         138.6657  140.1563  161.8147 C.3     1  UNL1        0.0004
     18 C         141.4705  141.0814  164.3570 C.3     1  UNL1        0.1339
     19 C         141.1036  142.3953  163.7333 C.ar    1  UNL1        0.0005
     20 C         141.3358  142.6212  162.2687 C.ar    1  UNL1       -0.0015
     21 C         140.9690  143.9351  161.6449 C.ar    1  UNL1        0.0111
     22 C         140.3700  145.0232  162.4858 C.ar    1  UNL1        0.0577
     23 CL        140.0031  146.3372  161.8622 Cl      1  UNL1       -0.0822
     24 C         140.1378  144.7975  163.9505 C.ar    1  UNL1        0.0111
     25 C         140.5046  143.4835  164.5742 C.ar    1  UNL1       -0.0015
@<TRIPOS>BOND
     1     1     2    1
     2     2     3   ar
     3     3     4   ar
     4     4     5   ar
     5     5     6   ar
     6     6    12    1
     7    12    13    1
     8    13    14    1
     9    14    15    1
    10    15    16    1
    11    16    17    1
    12     6     7   ar
    13     7    18    1
    14    18    19    1
    15    19    20   ar
    16    20    21   ar
    17    21    22   ar
    18    22    23    1
    19    22    24   ar
    20    24    25   ar
    21     7     8   ar
    22     8     9   ar
    23     9    10   ar
    24    10    11    1
    25    10     2   ar
    26     8     4   ar
    27    17    13    1
    28    25    19   ar
@<TRIPOS>MOLECULE
*****
 25 28 0 0 0
SMALL
GASTEIGER

@<TRIPOS>ATOM
      1 C         143.2658  141.1845  169.8554 C.3     1  UNL1        0.0307
      2 C         142.3828  140.8825  168.6811 C.ar    1  UNL1       -0.0242
      3 C         142.6515  139.6759  167.8315 C.ar    1  UNL1        0.0160
      4 C         141.7685  139.3738  166.6572 C.ar    1  UNL1        0.0980
      5 N         141.7871  138.2658  165.6461 N.ar    1  UNL1       -0.2310
      6 C         140.6469  138.4856  164.6966 C.ar    1  UNL1        0.1205
      7 N         139.9237  139.7294  165.1208 N.ar    1  UNL1       -0.3107
      8 C         140.6168  140.2783  166.3324 C.ar    1  UNL1        0.0785
      9 C         140.3482  141.4849  167.1820 C.ar    1  UNL1        0.0142
     10 C         141.2312  141.7870  168.3564 C.ar    1  UNL1       -0.0243
     11 C         140.9625  142.9937  169.2060 C.3     1  UNL1        0.0307
     12 C         140.2922  137.6145  163.5280 C.3     1  UNL1        0.0639
     13 C         140.2354  138.1982  162.1474 C.3     1  UNL1        0.0075
     14 C         139.0281  138.2440  161.2585 C.3     1  UNL1        0.0004
     15 C         139.4226  138.9127  159.9750 C.3     1  UNL1        0.0000
     16 C         140.8737  139.2802  160.0707 C.3     1  UNL1        0.0000
     17 C         141.3761  138.8386  161.4134 C.3     1  UNL1        0.0004
     18 C         138.7188  140.3205  164.4508 C.3     1  UNL1        0.1339
     19 C         138.7939  141.6908  163.8453 C.ar    1  UNL1        0.0005
     20 C         137.8515  142.7650  164.3013 C.ar    1  UNL1       -0.0015
     21 C         137.9266  144.1353  163.6958 C.ar    1  UNL1        0.0111
     22 C         138.9442  144.4314  162.6342 C.ar    1  UNL1        0.0577
     23 CL        139.0194  145.8017  162.0287 Cl      1  UNL1       -0.0822
     24 C         139.8866  143.3573  162.1782 C.ar    1  UNL1        0.0111
     25 C         139.8115  141.9869  162.7838 C.ar    1  UNL1       -0.0015
@<TRIPOS>BOND
     1     1     2    1
     2     2     3   ar
     3     3     4   ar
     4     4     5   ar
     5     5     6   ar
     6     6    12    1
     7    12    13    1
     8    13    14    1
     9    14    15    1
    10    15    16    1
    11    16    17    1
    12     6     7   ar
    13     7    18    1
    14    18    19    1
    15    19    20   ar
    16    20    21   ar
    17    21    22   ar
    18    22    23    1
    19    22    24   ar
    20    24    25   ar
    21     7     8   ar
    22     8     9   ar
    23     9    10   ar
    24    10    11    1
    25    10     2   ar
    26     8     4   ar
    27    17    13    1
    28    25    19   ar
@<TRIPOS>MOLECULE
*****
 25 28 0 0 0
SMALL
GASTEIGER

@<TRIPOS>ATOM
      1 C         140.9290  140.9842  171.4190 C.3     1  UNL1        0.0307
      2 C         141.3906  141.0492  169.9932 C.ar    1  UNL1       -0.0242
      3 C         142.0965  139.8768  169.3792 C.ar    1  UNL1        0.0160
      4 C         142.5580  139.9418  167.9534 C.ar    1  UNL1        0.0980
      5 N         143.2746  138.9513  167.0842 N.ar    1  UNL1       -0.2310
      6 C         143.4731  139.5766  165.7354 C.ar    1  UNL1        0.1205
      7 N         142.8792  140.9536  165.7709 N.ar    1  UNL1       -0.3107
      8 C         142.3137  141.1793  167.1417 C.ar    1  UNL1        0.0785
      9 C         141.6078  142.3517  167.7558 C.ar    1  UNL1        0.0142
     10 C         141.1462  142.2867  169.1815 C.ar    1  UNL1       -0.0243
     11 C         140.4403  143.4592  169.7955 C.3     1  UNL1        0.0307
     12 C         144.1472  138.9373  164.5576 C.3     1  UNL1        0.0639
     13 C         143.3855  138.7215  163.2836 C.3     1  UNL1        0.0075
     14 C         142.0964  137.9673  163.1440 C.3     1  UNL1        0.0004
     15 C         141.6934  138.0017  161.6995 C.3     1  UNL1        0.0000
     16 C         142.7334  138.7771  160.9464 C.3     1  UNL1        0.0000
     17 C         143.7791  139.2220  161.9254 C.3     1  UNL1        0.0004
     18 C         142.8551  141.9330  164.6350 C.3     1  UNL1        0.1339
     19 C         141.5576  142.5500  164.2040 C.ar    1  UNL1        0.0005
     20 C         140.5055  141.7041  163.5500 C.ar    1  UNL1       -0.0015
     21 C         139.2080  142.3209  163.1190 C.ar    1  UNL1        0.0111
     22 C         138.9624  143.7838  163.3420 C.ar    1  UNL1        0.0577
     23 CL        137.6649  144.4008  162.9110 Cl      1  UNL1       -0.0822
     24 C         140.0144  144.6298  163.9960 C.ar    1  UNL1        0.0111
     25 C         141.3120  144.0128  164.4270 C.ar    1  UNL1       -0.0015
@<TRIPOS>BOND
     1     1     2    1
     2     2     3   ar
     3     3     4   ar
     4     4     5   ar
     5     5     6   ar
     6     6    12    1
     7    12    13    1
     8    13    14    1
     9    14    15    1
    10    15    16    1
    11    16    17    1
    12     6     7   ar
    13     7    18    1
    14    18    19    1
    15    19    20   ar
    16    20    21   ar
    17    21    22   ar
    18    22    23    1
    19    22    24   ar
    20    24    25   ar
    21     7     8   ar
    22     8     9   ar
    23     9    10   ar
    24    10    11    1
    25    10     2   ar
    26     8     4   ar
    27    17    13    1
    28    25    19   ar
@<TRIPOS>MOLECULE
*****
 25 28 0 0 0
SMALL
GASTEIGER

@<TRIPOS>ATOM
      1 C         137.7148  138.4383  166.8461 C.3     1  UNL1        0.0307
      2 C         138.9391  138.5833  165.9918 C.ar    1  UNL1       -0.0242
      3 C         139.0533  137.8155  164.7083 C.ar    1  UNL1        0.0160
      4 C         140.2776  137.9605  163.8539 C.ar    1  UNL1        0.0980
      5 N         140.6694  137.3363  162.5474 N.ar    1  UNL1       -0.2310
      6 C         142.0218  137.8634  162.1690 C.ar    1  UNL1        0.1205
      7 N         142.4658  138.8133  163.2417 N.ar    1  UNL1       -0.3107
      8 C         141.3878  138.8733  164.2830 C.ar    1  UNL1        0.0785
      9 C         141.2736  139.6411  165.5665 C.ar    1  UNL1        0.0142
     10 C         140.0493  139.4961  166.4209 C.ar    1  UNL1       -0.0243
     11 C         139.9352  140.2640  167.7044 C.3     1  UNL1        0.0307
     12 C         142.7946  137.5038  160.9347 C.3     1  UNL1        0.0639
     13 C         142.6376  138.3212  159.6868 C.3     1  UNL1        0.0075
     14 C         142.4769  137.7841  158.2955 C.3     1  UNL1        0.0004
     15 C         142.3537  138.9501  157.3599 C.3     1  UNL1        0.0000
     16 C         142.4381  140.2078  158.1730 C.3     1  UNL1        0.0000
     17 C         142.6136  139.8191  159.6111 C.3     1  UNL1        0.0004
     18 C         143.7604  139.5704  163.2684 C.3     1  UNL1        0.1339
     19 C         143.7566  141.0557  163.4776 C.ar    1  UNL1        0.0005
     20 C         143.0526  141.9490  162.4996 C.ar    1  UNL1       -0.0015
     21 C         143.0487  143.4344  162.7086 C.ar    1  UNL1        0.0111
     22 C         143.7488  144.0265  163.8958 C.ar    1  UNL1        0.0577
     23 CL        143.7450  145.5118  164.1049 Cl      1  UNL1       -0.0822
     24 C         144.4528  143.1332  164.8738 C.ar    1  UNL1        0.0111
     25 C         144.4567  141.6478  164.6647 C.ar    1  UNL1       -0.0015
@<TRIPOS>BOND
     1     1     2    1
     2     2     3   ar
     3     3     4   ar
     4     4     5   ar
     5     5     6   ar
     6     6    12    1
     7    12    13    1
     8    13    14    1
     9    14    15    1
    10    15    16    1
    11    16    17    1
    12     6     7   ar
    13     7    18    1
    14    18    19    1
    15    19    20   ar
    16    20    21   ar
    17    21    22   ar
    18    22    23    1
    19    22    24   ar
    20    24    25   ar
    21     7     8   ar
    22     8     9   ar
    23     9    10   ar
    24    10    11    1
    25    10     2   ar
    26     8     4   ar
    27    17    13    1
    28    25    19   ar
