@<TRIPOS>MOLECULE
*****
 40 45 0 0 0
SMALL
GASTEIGER

@<TRIPOS>ATOM
      1 C         138.6351  141.8514  159.8418 C.3     1  UNL1        0.0546
      2 C         138.1448  140.4908  159.4440 C.3     1  UNL1        0.0180
      3 C         139.2465  139.8019  158.6945 C.3     1  UNL1        0.0310
      4 C         139.6244  138.5353  157.9854 C.3     1  UNL1        0.0941
      5 N         141.0291  138.6873  157.4819 N.pl3   1  UNL1       -0.2777
      6 C         141.5194  140.0479  157.8797 C.3     1  UNL1        0.1022
      7 C         140.4178  140.7368  158.6292 C.3     1  UNL1        0.0902
      8 C         140.0399  142.0034  159.3382 C.3     1  UNL1        0.0261
      9 C         141.5889  141.6717  158.5638 C.2     1  UNL1        0.2267
     10 O         141.7366  142.6088  157.4020 O.2     1  UNL1       -0.2748
     11 N         142.6125  141.6694  159.6604 N.am    1  UNL1       -0.2750
     12 C         143.7837  142.6043  159.5951 C.3     1  UNL1        0.1000
     13 C         144.8072  142.6019  160.6916 C.3     1  UNL1        0.0670
     14 C         144.6595  141.6648  161.8534 C.ar    1  UNL1        0.0583
     15 N         145.6831  141.6625  162.9500 N.ar    1  UNL1       -0.2484
     16 C         145.5354  140.7253  164.1118 C.ar    1  UNL1        0.1023
     17 C         144.3642  139.7904  164.1771 C.ar    1  UNL1        0.0902
     18 C         143.3407  139.7927  163.0806 C.ar    1  UNL1        0.0040
     19 C         143.4883  140.7299  161.9187 C.ar    1  UNL1        0.0113
     20 C         142.4648  140.7322  160.8222 C.3     1  UNL1        0.1213
     21 C         144.2165  138.8532  165.3390 C.3     1  UNL1        0.4200
     22 F         144.0688  137.9160  166.5008 F       1  UNL1       -0.1658
     23 F         145.7033  138.6568  165.3695 F       1  UNL1       -0.1658
     24 F         142.7297  139.0496  165.3084 F       1  UNL1       -0.1658
     25 C         141.8070  137.6592  156.7150 C.ar    1  UNL1        0.2202
     26 N         143.2823  137.8350  156.5086 N.ar    1  UNL1       -0.2121
     27 C         144.0601  136.8070  155.7419 C.ar    1  UNL1        0.1034
     28 C         143.3627  135.6031  155.1815 C.ar    1  UNL1        0.0414
     29 C         141.8874  135.4272  155.3879 C.ar    1  UNL1        0.1034
     30 N         141.1095  136.4552  156.1546 N.ar    1  UNL1       -0.2121
     31 N         137.8573  142.8795  160.6087 N.3     1  UNL1       -0.2975
     32 H         138.0624  143.7828  160.1816 H       1  UNL1        0.1232
     33 C         138.5921  144.3366  162.6303 C.3     1  UNL1        0.1591
     34 C         138.8105  144.4956  164.1057 C.3     1  UNL1        0.1729
     35 O         138.5125  143.3565  165.0351 O.3     1  UNL1       -0.3511
     36 C         137.9961  142.0584  164.4889 C.3     1  UNL1        0.1437
     37 C         137.7776  141.8994  163.0135 C.3     1  UNL1        0.0503
     38 C         138.0757  143.0385  162.0841 C.3     1  UNL1        0.0865
     39 C         140.2266  145.5626  161.0254 C.3     1  UNL1        0.1742
     40 O         138.8901  145.4756  161.7009 O.3     1  UNL1       -0.3496
@<TRIPOS>BOND
     1    39    40    1
     2    40    33    1
     3    33    34    1
     4    34    35    1
     5    35    36    1
     6    36    37    1
     7    37    38    1
     8    38    31    1
     9     1    31    1
    10     1     2    1
    11     3     2    1
    12     3     4    1
    13     4     5    1
    14     5    25    1
    15    25    26   ar
    16    26    27   ar
    17    27    28   ar
    18    28    29   ar
    19    29    30   ar
    20     5     6    1
    21     6     7    1
    22     7     9    1
    23     9    10    2
    24     9    11   am
    25    11    12    1
    26    12    13    1
    27    13    14    1
    28    14    15   ar
    29    15    16   ar
    30    16    17   ar
    31    17    21    1
    32    21    22    1
    33    21    23    1
    34    21    24    1
    35    17    18   ar
    36    18    19   ar
    37    19    20    1
    38     7     8    1
    39    38    33    1
    40     8     1    1
    41     7     3    1
    42    20    11    1
    43    30    25   ar
    44    19    14   ar
    45    31    32    1
@<TRIPOS>MOLECULE
*****
 40 45 0 0 0
SMALL
GASTEIGER

@<TRIPOS>ATOM
      1 C         140.0547  138.4236  160.6565 C.3     1  UNL1        0.0546
      2 C         139.9356  139.0314  159.2903 C.3     1  UNL1        0.0180
      3 C         141.3064  139.4505  158.8484 C.3     1  UNL1        0.0310
      4 C         142.0800  140.0851  157.7309 C.3     1  UNL1        0.0941
      5 N         143.5243  140.1287  158.1333 N.pl3   1  UNL1       -0.2777
      6 C         143.6434  139.5209  159.4995 C.3     1  UNL1        0.1022
      7 C         142.2727  139.1018  159.9414 C.3     1  UNL1        0.0902
      8 C         141.4990  138.4672  161.0589 C.3     1  UNL1        0.0261
      9 C         143.2389  138.7531  161.0345 C.2     1  UNL1        0.2267
     10 O         144.3035  137.7241  160.7943 O.2     1  UNL1       -0.2748
     11 N         143.1405  139.4334  162.3678 N.am    1  UNL1       -0.2750
     12 C         144.1067  139.0847  163.4608 C.3     1  UNL1        0.1000
     13 C         144.0083  139.7650  164.7940 C.3     1  UNL1        0.0670
     14 C         142.9436  140.7940  165.0341 C.ar    1  UNL1        0.0583
     15 N         142.8452  141.4743  166.3674 N.ar    1  UNL1       -0.2484
     16 C         141.7806  142.5033  166.6076 C.ar    1  UNL1        0.1023
     17 C         140.8143  142.8520  165.5145 C.ar    1  UNL1        0.0902
     18 C         140.9128  142.1717  164.1813 C.ar    1  UNL1        0.0040
     19 C         141.9774  141.1427  163.9411 C.ar    1  UNL1        0.0113
     20 C         142.0758  140.4624  162.6079 C.3     1  UNL1        0.1213
     21 C         139.7497  143.8810  165.7546 C.3     1  UNL1        0.4200
     22 F         138.6850  144.9100  165.9948 F       1  UNL1       -0.1658
     23 F         139.8668  143.6571  167.2332 F       1  UNL1       -0.1658
     24 F         139.6326  144.1050  164.2760 F       1  UNL1       -0.1658
     25 C         144.6517  140.6827  157.3134 C.ar    1  UNL1        0.2202
     26 N         145.1081  139.9602  156.0806 N.ar    1  UNL1       -0.2121
     27 C         146.2354  140.5142  155.2608 C.ar    1  UNL1        0.1034
     28 C         146.9063  141.7906  155.6736 C.ar    1  UNL1        0.0414
     29 C         146.4500  142.5131  156.9064 C.ar    1  UNL1        0.1034
     30 N         145.3226  141.9591  157.7263 N.ar    1  UNL1       -0.2121
     31 N         138.9273  137.8696  161.4764 N.3     1  UNL1       -0.2975
     32 H         138.0743  138.0047  160.9336 H       1  UNL1        0.1232
     33 C         138.0396  139.7717  163.0074 C.3     1  UNL1        0.1591
     34 C         137.7711  140.3169  164.3788 C.3     1  UNL1        0.1729
     35 O         138.1218  139.5053  165.5905 O.3     1  UNL1       -0.3511
     36 C         138.7410  138.1484  165.4308 C.3     1  UNL1        0.1437
     37 C         139.0095  137.6032  164.0595 C.3     1  UNL1        0.0503
     38 C         138.6588  138.4149  162.8477 C.3     1  UNL1        0.0865
     39 C         138.4983  141.7969  161.4459 C.3     1  UNL1        0.1742
     40 O         137.6890  140.5833  161.7957 O.3     1  UNL1       -0.3496
@<TRIPOS>BOND
     1    39    40    1
     2    40    33    1
     3    33    34    1
     4    34    35    1
     5    35    36    1
     6    36    37    1
     7    37    38    1
     8    38    31    1
     9     1    31    1
    10     1     2    1
    11     3     2    1
    12     3     4    1
    13     4     5    1
    14     5    25    1
    15    25    26   ar
    16    26    27   ar
    17    27    28   ar
    18    28    29   ar
    19    29    30   ar
    20     5     6    1
    21     6     7    1
    22     7     9    1
    23     9    10    2
    24     9    11   am
    25    11    12    1
    26    12    13    1
    27    13    14    1
    28    14    15   ar
    29    15    16   ar
    30    16    17   ar
    31    17    21    1
    32    21    22    1
    33    21    23    1
    34    21    24    1
    35    17    18   ar
    36    18    19   ar
    37    19    20    1
    38     7     8    1
    39    38    33    1
    40     8     1    1
    41     7     3    1
    42    20    11    1
    43    30    25   ar
    44    19    14   ar
    45    31    32    1
@<TRIPOS>MOLECULE
*****
 40 45 0 0 0
SMALL
GASTEIGER

@<TRIPOS>ATOM
      1 C         140.0653  140.9896  158.7727 C.3     1  UNL1        0.0546
      2 C         139.3259  140.0901  157.8271 C.3     1  UNL1        0.0180
      3 C         140.2087  138.9180  157.5165 C.3     1  UNL1        0.0310
      4 C         140.2974  137.6376  156.7401 C.3     1  UNL1        0.0941
      5 N         141.6373  137.0213  157.0138 N.pl3   1  UNL1       -0.2777
      6 C         142.3767  137.9208  157.9594 C.3     1  UNL1        0.1022
      7 C         141.4939  139.0930  158.2701 C.3     1  UNL1        0.0902
      8 C         141.4051  140.3733  159.0465 C.3     1  UNL1        0.0261
      9 C         142.7789  139.2680  159.0237 C.2     1  UNL1        0.2267
     10 O         144.0570  139.5177  158.2792 O.2     1  UNL1       -0.2748
     11 N         142.7859  139.1935  160.5219 N.am    1  UNL1       -0.2750
     12 C         144.0710  139.3685  161.2755 C.3     1  UNL1        0.1000
     13 C         144.0779  139.2939  162.7736 C.3     1  UNL1        0.0670
     14 C         142.7999  139.0443  163.5181 C.ar    1  UNL1        0.0583
     15 N         142.8069  138.9697  165.0163 N.ar    1  UNL1       -0.2484
     16 C         141.5289  138.7200  165.7607 C.ar    1  UNL1        0.1023
     17 C         140.2438  138.5450  165.0070 C.ar    1  UNL1        0.0902
     18 C         140.2368  138.6195  163.5089 C.ar    1  UNL1        0.0040
     19 C         141.5149  138.8692  162.7645 C.ar    1  UNL1        0.0113
     20 C         141.5079  138.9438  161.2664 C.3     1  UNL1        0.1213
     21 C         138.9657  138.2953  165.7515 C.3     1  UNL1        0.4200
     22 F         137.6877  138.0456  166.4960 F       1  UNL1       -0.1658
     23 F         139.3277  139.3700  166.7334 F       1  UNL1       -0.1658
     24 F         138.6037  137.2206  164.7697 F       1  UNL1       -0.1658
     25 C         142.1481  135.7319  156.4423 C.ar    1  UNL1        0.2202
     26 N         143.2811  135.0117  157.1113 N.ar    1  UNL1       -0.2121
     27 C         143.7919  133.7224  156.5399 C.ar    1  UNL1        0.1034
     28 C         143.1697  133.1532  155.2994 C.ar    1  UNL1        0.0414
     29 C         142.0367  133.8734  154.6304 C.ar    1  UNL1        0.1034
     30 N         141.5259  135.1628  155.2018 N.ar    1  UNL1       -0.2121
     31 N         139.5545  142.2790  159.3442 N.3     1  UNL1       -0.2975
     32 H         140.3575  142.9023  159.4287 H       1  UNL1        0.1232
     33 C         138.7732  143.5564  161.4674 C.3     1  UNL1        0.1591
     34 C         138.0774  143.5642  162.7963 C.3     1  UNL1        0.1729
     35 O         137.4671  142.3026  163.3307 O.3     1  UNL1       -0.3511
     36 C         137.5525  141.0330  162.5364 C.3     1  UNL1        0.1437
     37 C         138.2483  141.0252  161.2075 C.3     1  UNL1        0.0503
     38 C         138.8587  142.2869  160.6731 C.3     1  UNL1        0.0865
     39 C         139.7274  145.9395  161.8679 C.3     1  UNL1        0.1742
     40 O         139.3836  144.8180  160.9329 O.3     1  UNL1       -0.3496
@<TRIPOS>BOND
     1    39    40    1
     2    40    33    1
     3    33    34    1
     4    34    35    1
     5    35    36    1
     6    36    37    1
     7    37    38    1
     8    38    31    1
     9     1    31    1
    10     1     2    1
    11     3     2    1
    12     3     4    1
    13     4     5    1
    14     5    25    1
    15    25    26   ar
    16    26    27   ar
    17    27    28   ar
    18    28    29   ar
    19    29    30   ar
    20     5     6    1
    21     6     7    1
    22     7     9    1
    23     9    10    2
    24     9    11   am
    25    11    12    1
    26    12    13    1
    27    13    14    1
    28    14    15   ar
    29    15    16   ar
    30    16    17   ar
    31    17    21    1
    32    21    22    1
    33    21    23    1
    34    21    24    1
    35    17    18   ar
    36    18    19   ar
    37    19    20    1
    38     7     8    1
    39    38    33    1
    40     8     1    1
    41     7     3    1
    42    20    11    1
    43    30    25   ar
    44    19    14   ar
    45    31    32    1
@<TRIPOS>MOLECULE
*****
 40 45 0 0 0
SMALL
GASTEIGER

@<TRIPOS>ATOM
      1 C         142.3698  143.9218  163.4486 C.3     1  UNL1        0.0546
      2 C         141.5432  145.1155  163.0719 C.3     1  UNL1        0.0180
      3 C         141.1713  144.9837  161.6247 C.3     1  UNL1        0.0310
      4 C         140.4306  145.6399  160.4974 C.3     1  UNL1        0.0941
      5 N         140.5697  144.7704  159.2831 N.pl3   1  UNL1       -0.2777
      6 C         141.3963  143.5767  159.6598 C.3     1  UNL1        0.1022
      7 C         141.7681  143.7085  161.1070 C.3     1  UNL1        0.0902
      8 C         142.5088  143.0523  162.2343 C.3     1  UNL1        0.0261
      9 C         142.3649  142.4335  160.5894 C.2     1  UNL1        0.2267
     10 O         143.3469  142.4708  159.4561 O.2     1  UNL1       -0.2748
     11 N         141.9797  141.1209  161.2050 N.am    1  UNL1       -0.2750
     12 C         142.5765  139.8458  160.6874 C.3     1  UNL1        0.1000
     13 C         142.1913  138.5334  161.3031 C.3     1  UNL1        0.0670
     14 C         141.2093  138.4960  162.4363 C.ar    1  UNL1        0.0583
     15 N         140.8241  137.1835  163.0520 N.ar    1  UNL1       -0.2484
     16 C         139.8421  137.1461  164.1853 C.ar    1  UNL1        0.1023
     17 C         139.2453  138.4213  164.7029 C.ar    1  UNL1        0.0902
     18 C         139.6305  139.7338  164.0872 C.ar    1  UNL1        0.0040
     19 C         140.6125  139.7711  162.9540 C.ar    1  UNL1        0.0113
     20 C         140.9977  141.0836  162.3383 C.3     1  UNL1        0.1213
     21 C         138.2633  138.3840  165.8362 C.3     1  UNL1        0.4200
     22 F         137.2813  138.3466  166.9694 F       1  UNL1       -0.1658
     23 F         138.3756  136.8889  165.8842 F       1  UNL1       -0.1658
     24 F         138.1510  139.8790  165.7881 F       1  UNL1       -0.1658
     25 C         139.9847  145.0461  157.9296 C.ar    1  UNL1        0.2202
     26 N         139.9642  146.4465  157.3926 N.ar    1  UNL1       -0.2121
     27 C         139.3794  146.7223  156.0391 C.ar    1  UNL1        0.1034
     28 C         138.8150  145.5977  155.2227 C.ar    1  UNL1        0.0414
     29 C         138.8355  144.1972  155.7597 C.ar    1  UNL1        0.1034
     30 N         139.4203  143.9215  157.1132 N.ar    1  UNL1       -0.2121
     31 N         142.9547  143.6461  164.8021 N.3     1  UNL1       -0.2975
     32 H         143.9617  143.5476  164.6732 H       1  UNL1        0.1232
     33 C         143.2718  141.1674  165.5131 C.3     1  UNL1        0.1591
     34 C         142.8167  139.9726  166.2975 C.3     1  UNL1        0.1729
     35 O         141.5895  140.0616  167.1554 O.3     1  UNL1       -0.3511
     36 C         140.8173  141.3455  167.2289 C.3     1  UNL1        0.1437
     37 C         141.2723  142.5403  166.4445 C.3     1  UNL1        0.0503
     38 C         142.4996  142.4513  165.5866 C.3     1  UNL1        0.0865
     39 C         144.7093  139.8870  163.7683 C.3     1  UNL1        0.1742
     40 O         144.4990  141.0784  164.6552 O.3     1  UNL1       -0.3496
@<TRIPOS>BOND
     1    39    40    1
     2    40    33    1
     3    33    34    1
     4    34    35    1
     5    35    36    1
     6    36    37    1
     7    37    38    1
     8    38    31    1
     9     1    31    1
    10     1     2    1
    11     3     2    1
    12     3     4    1
    13     4     5    1
    14     5    25    1
    15    25    26   ar
    16    26    27   ar
    17    27    28   ar
    18    28    29   ar
    19    29    30   ar
    20     5     6    1
    21     6     7    1
    22     7     9    1
    23     9    10    2
    24     9    11   am
    25    11    12    1
    26    12    13    1
    27    13    14    1
    28    14    15   ar
    29    15    16   ar
    30    16    17   ar
    31    17    21    1
    32    21    22    1
    33    21    23    1
    34    21    24    1
    35    17    18   ar
    36    18    19   ar
    37    19    20    1
    38     7     8    1
    39    38    33    1
    40     8     1    1
    41     7     3    1
    42    20    11    1
    43    30    25   ar
    44    19    14   ar
    45    31    32    1
@<TRIPOS>MOLECULE
*****
 40 45 0 0 0
SMALL
GASTEIGER

@<TRIPOS>ATOM
      1 C         138.5712  141.8796  159.9837 C.3     1  UNL1        0.0546
      2 C         138.0561  140.9628  158.9140 C.3     1  UNL1        0.0180
      3 C         139.2040  140.1305  158.4246 C.3     1  UNL1        0.0310
      4 C         139.5952  139.0496  157.4610 C.3     1  UNL1        0.0941
      5 N         141.0614  138.7838  157.6327 N.pl3   1  UNL1       -0.2777
      6 C         141.5765  139.7006  158.7024 C.3     1  UNL1        0.1022
      7 C         140.4286  140.5329  159.1918 C.3     1  UNL1        0.0902
      8 C         140.0374  141.6139  160.1554 C.3     1  UNL1        0.0261
      9 C         141.6531  140.9353  159.9590 C.2     1  UNL1        0.2267
     10 O         142.8217  141.5430  159.2414 O.2     1  UNL1       -0.2748
     11 N         141.7090  140.7299  161.4439 N.am    1  UNL1       -0.2750
     12 C         142.9335  141.1323  162.2111 C.3     1  UNL1        0.1000
     13 C         142.9894  140.9269  163.6959 C.3     1  UNL1        0.0670
     14 C         141.8208  140.3191  164.4135 C.ar    1  UNL1        0.0583
     15 N         141.8767  140.1138  165.8984 N.ar    1  UNL1       -0.2484
     16 C         140.7081  139.5060  166.6159 C.ar    1  UNL1        0.1023
     17 C         139.4835  139.1036  165.8487 C.ar    1  UNL1        0.0902
     18 C         139.4276  139.3090  164.3639 C.ar    1  UNL1        0.0040
     19 C         140.5963  139.9168  163.6463 C.ar    1  UNL1        0.0113
     20 C         140.5404  140.1221  162.1615 C.3     1  UNL1        0.1213
     21 C         138.3149  138.4959  166.5663 C.3     1  UNL1        0.4200
     22 F         137.1463  137.8881  167.2838 F       1  UNL1       -0.1658
     23 F         138.4741  139.4960  167.6727 F       1  UNL1       -0.1658
     24 F         138.1556  137.4957  165.4598 F       1  UNL1       -0.1658
     25 C         141.8706  137.7779  156.8688 C.ar    1  UNL1        0.2202
     26 N         141.2570  136.4684  156.4706 N.ar    1  UNL1       -0.2121
     27 C         142.0660  135.4625  155.7067 C.ar    1  UNL1        0.1034
     28 C         143.4887  135.7662  155.3410 C.ar    1  UNL1        0.0414
     29 C         144.1023  137.0757  155.7392 C.ar    1  UNL1        0.1034
     30 N         143.2932  138.0816  156.5031 N.ar    1  UNL1       -0.2121
     31 N         137.7620  142.8855  160.7477 N.3     1  UNL1       -0.2975
     32 H         137.8084  143.7596  160.2240 H       1  UNL1        0.1232
     33 C         138.9088  144.4486  162.4772 C.3     1  UNL1        0.1591
     34 C         139.2651  144.7751  163.8973 C.3     1  UNL1        0.1729
     35 O         138.8308  143.8651  165.0077 O.3     1  UNL1       -0.3511
     36 C         138.0402  142.6284  164.6982 C.3     1  UNL1        0.1437
     37 C         137.6840  142.3019  163.2782 C.3     1  UNL1        0.0503
     38 C         138.1183  143.2120  162.1677 C.3     1  UNL1        0.0865
     39 C         140.7274  145.2433  160.8005 C.3     1  UNL1        0.1742
     40 O         139.3431  145.3586  161.3668 O.3     1  UNL1       -0.3496
@<TRIPOS>BOND
     1    39    40    1
     2    40    33    1
     3    33    34    1
     4    34    35    1
     5    35    36    1
     6    36    37    1
     7    37    38    1
     8    38    31    1
     9     1    31    1
    10     1     2    1
    11     3     2    1
    12     3     4    1
    13     4     5    1
    14     5    25    1
    15    25    26   ar
    16    26    27   ar
    17    27    28   ar
    18    28    29   ar
    19    29    30   ar
    20     5     6    1
    21     6     7    1
    22     7     9    1
    23     9    10    2
    24     9    11   am
    25    11    12    1
    26    12    13    1
    27    13    14    1
    28    14    15   ar
    29    15    16   ar
    30    16    17   ar
    31    17    21    1
    32    21    22    1
    33    21    23    1
    34    21    24    1
    35    17    18   ar
    36    18    19   ar
    37    19    20    1
    38     7     8    1
    39    38    33    1
    40     8     1    1
    41     7     3    1
    42    20    11    1
    43    30    25   ar
    44    19    14   ar
    45    31    32    1
@<TRIPOS>MOLECULE
*****
 40 45 0 0 0
SMALL
GASTEIGER

@<TRIPOS>ATOM
      1 C         142.0388  143.3401  159.3383 C.3     1  UNL1        0.0546
      2 C         143.2930  142.8282  158.6943 C.3     1  UNL1        0.0180
      3 C         143.0171  141.4485  158.1741 C.3     1  UNL1        0.0310
      4 C         143.6217  140.2795  157.4546 C.3     1  UNL1        0.0941
      5 N         142.5707  139.2163  157.3325 N.pl3   1  UNL1       -0.2777
      6 C         141.3165  139.7282  157.9766 C.3     1  UNL1        0.1022
      7 C         141.5923  141.1078  158.4968 C.3     1  UNL1        0.0902
      8 C         140.9877  142.2769  159.2163 C.3     1  UNL1        0.0261
      9 C         140.1676  140.7671  158.8194 C.2     1  UNL1        0.2267
     10 O         139.1040  140.9219  157.7731 O.2     1  UNL1       -0.2748
     11 N         139.8065  140.2717  160.1884 N.am    1  UNL1       -0.2750
     12 C         138.3818  139.9310  160.5110 C.3     1  UNL1        0.1000
     13 C         138.0207  139.4355  161.8800 C.3     1  UNL1        0.0670
     14 C         139.0843  139.2808  162.9263 C.ar    1  UNL1        0.0583
     15 N         138.7231  138.7853  164.2954 N.ar    1  UNL1       -0.2484
     16 C         139.7867  138.6305  165.3417 C.ar    1  UNL1        0.1023
     17 C         141.2115  138.9712  165.0190 C.ar    1  UNL1        0.0902
     18 C         141.5726  139.4667  163.6500 C.ar    1  UNL1        0.0040
     19 C         140.5090  139.6214  162.6037 C.ar    1  UNL1        0.0113
     20 C         140.8701  140.1169  161.2347 C.3     1  UNL1        0.1213
     21 C         142.2751  138.8164  166.0653 C.3     1  UNL1        0.4200
     22 F         143.3387  138.6617  167.1116 F       1  UNL1       -0.1658
     23 F         143.1849  138.1935  165.0483 F       1  UNL1       -0.1658
     24 F         141.3653  139.4393  167.0823 F       1  UNL1       -0.1658
     25 C         142.7435  137.8763  156.6808 C.ar    1  UNL1        0.2202
     26 N         144.0662  137.4983  156.0827 N.ar    1  UNL1       -0.2121
     27 C         144.2391  136.1584  155.4310 C.ar    1  UNL1        0.1034
     28 C         143.0893  135.1966  155.3773 C.ar    1  UNL1        0.0414
     29 C         141.7667  135.5746  155.9754 C.ar    1  UNL1        0.1034
     30 N         141.5938  136.9145  156.6271 N.ar    1  UNL1       -0.2121
     31 N         141.8659  144.6801  159.9901 N.3     1  UNL1       -0.2975
     32 H         142.7772  145.1377  159.9687 H       1  UNL1        0.1232
     33 C         142.3457  144.7566  162.5423 C.3     1  UNL1        0.1591
     34 C         141.8499  144.8449  163.9553 C.3     1  UNL1        0.1729
     35 O         140.3785  144.9452  164.2289 O.3     1  UNL1       -0.3511
     36 C         139.4028  144.9570  163.0896 C.3     1  UNL1        0.1437
     37 C         139.8986  144.8686  161.6766 C.3     1  UNL1        0.0503
     38 C         141.3701  144.7684  161.4030 C.3     1  UNL1        0.0865
     39 C         144.4942  143.3180  162.2887 C.3     1  UNL1        0.1742
     40 O         143.8171  144.6564  162.2687 O.3     1  UNL1       -0.3496
@<TRIPOS>BOND
     1    39    40    1
     2    40    33    1
     3    33    34    1
     4    34    35    1
     5    35    36    1
     6    36    37    1
     7    37    38    1
     8    38    31    1
     9     1    31    1
    10     1     2    1
    11     3     2    1
    12     3     4    1
    13     4     5    1
    14     5    25    1
    15    25    26   ar
    16    26    27   ar
    17    27    28   ar
    18    28    29   ar
    19    29    30   ar
    20     5     6    1
    21     6     7    1
    22     7     9    1
    23     9    10    2
    24     9    11   am
    25    11    12    1
    26    12    13    1
    27    13    14    1
    28    14    15   ar
    29    15    16   ar
    30    16    17   ar
    31    17    21    1
    32    21    22    1
    33    21    23    1
    34    21    24    1
    35    17    18   ar
    36    18    19   ar
    37    19    20    1
    38     7     8    1
    39    38    33    1
    40     8     1    1
    41     7     3    1
    42    20    11    1
    43    30    25   ar
    44    19    14   ar
    45    31    32    1
@<TRIPOS>MOLECULE
*****
 40 45 0 0 0
SMALL
GASTEIGER

@<TRIPOS>ATOM
      1 C         140.0457  142.9638  160.0404 C.3     1  UNL1        0.0546
      2 C         139.4690  142.1771  158.9009 C.3     1  UNL1        0.0180
      3 C         140.4733  141.1376  158.5001 C.3     1  UNL1        0.0310
      4 C         140.7377  140.0089  157.5482 C.3     1  UNL1        0.0941
      5 N         142.0985  139.4556  157.8517 N.pl3   1  UNL1       -0.2777
      6 C         142.6752  140.2423  158.9912 C.3     1  UNL1        0.1022
      7 C         141.6709  141.2818  159.3920 C.3     1  UNL1        0.0902
      8 C         141.4065  142.4105  160.3439 C.3     1  UNL1        0.0261
      9 C         142.8683  141.4261  160.2837 C.2     1  UNL1        0.2267
     10 O         144.1737  141.8989  159.7159 O.2     1  UNL1       -0.2748
     11 N         142.7603  141.0977  161.7434 N.am    1  UNL1       -0.2750
     12 C         143.9577  141.2420  162.6352 C.3     1  UNL1        0.1000
     13 C         143.8497  140.9136  164.0948 C.3     1  UNL1        0.0670
     14 C         142.5443  140.4409  164.6626 C.ar    1  UNL1        0.0583
     15 N         142.4363  140.1124  166.1222 N.ar    1  UNL1       -0.2484
     16 C         141.1309  139.6397  166.6900 C.ar    1  UNL1        0.1023
     17 C         139.9335  139.4954  165.7982 C.ar    1  UNL1        0.0902
     18 C         140.0415  139.8238  164.3386 C.ar    1  UNL1        0.0040
     19 C         141.3469  140.2966  163.7708 C.ar    1  UNL1        0.0113
     20 C         141.4549  140.6250  162.3112 C.3     1  UNL1        0.1213
     21 C         138.6280  139.0227  166.3660 C.3     1  UNL1        0.4200
     22 F         137.3226  138.5500  166.9338 F       1  UNL1       -0.1658
     23 F         138.3108  138.3402  165.0685 F       1  UNL1       -0.1658
     24 F         138.9452  139.7052  167.6635 F       1  UNL1       -0.1658
     25 C         142.7655  138.3157  157.1405 C.ar    1  UNL1        0.2202
     26 N         143.8183  138.5892  156.1076 N.ar    1  UNL1       -0.2121
     27 C         144.4853  137.4493  155.3964 C.ar    1  UNL1        0.1034
     28 C         144.0995  136.0360  155.7181 C.ar    1  UNL1        0.0414
     29 C         143.0466  135.7625  156.7509 C.ar    1  UNL1        0.1034
     30 N         142.3797  136.9023  157.4621 N.ar    1  UNL1       -0.2121
     31 N         139.3787  144.1037  160.7516 N.3     1  UNL1       -0.2975
     32 H         139.9803  144.9186  160.6309 H       1  UNL1        0.1232
     33 C         138.1012  142.9762  162.7129 C.3     1  UNL1        0.1591
     34 C         137.8012  142.8729  164.1789 C.3     1  UNL1        0.1729
     35 O         138.4788  143.7938  165.1498 O.3     1  UNL1       -0.3511
     36 C         139.4564  144.8182  164.6547 C.3     1  UNL1        0.1437
     37 C         139.7564  144.9215  163.1886 C.3     1  UNL1        0.0503
     38 C         139.0787  144.0004  162.2177 C.3     1  UNL1        0.0865
     39 C         137.6707  140.5773  161.8127 C.3     1  UNL1        0.1742
     40 O         137.4236  142.0552  161.7420 O.3     1  UNL1       -0.3496
@<TRIPOS>BOND
     1    39    40    1
     2    40    33    1
     3    33    34    1
     4    34    35    1
     5    35    36    1
     6    36    37    1
     7    37    38    1
     8    38    31    1
     9     1    31    1
    10     1     2    1
    11     3     2    1
    12     3     4    1
    13     4     5    1
    14     5    25    1
    15    25    26   ar
    16    26    27   ar
    17    27    28   ar
    18    28    29   ar
    19    29    30   ar
    20     5     6    1
    21     6     7    1
    22     7     9    1
    23     9    10    2
    24     9    11   am
    25    11    12    1
    26    12    13    1
    27    13    14    1
    28    14    15   ar
    29    15    16   ar
    30    16    17   ar
    31    17    21    1
    32    21    22    1
    33    21    23    1
    34    21    24    1
    35    17    18   ar
    36    18    19   ar
    37    19    20    1
    38     7     8    1
    39    38    33    1
    40     8     1    1
    41     7     3    1
    42    20    11    1
    43    30    25   ar
    44    19    14   ar
    45    31    32    1
@<TRIPOS>MOLECULE
*****
 40 45 0 0 0
SMALL
GASTEIGER

@<TRIPOS>ATOM
      1 C         141.3827  143.9141  160.0094 C.3     1  UNL1        0.0546
      2 C         140.0768  144.4066  159.4600 C.3     1  UNL1        0.0180
      3 C         139.4838  143.3122  158.6229 C.3     1  UNL1        0.0310
      4 C         138.3102  142.9403  157.7660 C.3     1  UNL1        0.0941
      5 N         138.5244  141.5414  157.2684 N.pl3   1  UNL1       -0.2777
      6 C         139.8303  141.0489  157.8179 C.3     1  UNL1        0.1022
      7 C         140.4233  142.1433  158.6549 C.3     1  UNL1        0.0902
      8 C         141.5969  142.5153  159.5118 C.3     1  UNL1        0.0261
      9 C         141.3627  140.9744  158.6870 C.2     1  UNL1        0.2267
     10 O         142.3307  140.7590  157.5615 O.2     1  UNL1       -0.2748
     11 N         141.3343  140.0208  159.8447 N.am    1  UNL1       -0.2750
     12 C         142.2738  138.8520  159.8767 C.3     1  UNL1        0.1000
     13 C         142.2453  137.8985  161.0343 C.3     1  UNL1        0.0670
     14 C         141.2774  138.1139  162.1598 C.ar    1  UNL1        0.0583
     15 N         141.2490  137.1603  163.3174 N.ar    1  UNL1       -0.2484
     16 C         140.2810  137.3757  164.4429 C.ar    1  UNL1        0.1023
     17 C         139.3415  138.5447  164.4108 C.ar    1  UNL1        0.0902
     18 C         139.3700  139.4982  163.2532 C.ar    1  UNL1        0.0040
     19 C         140.3379  139.2828  162.1277 C.ar    1  UNL1        0.0113
     20 C         140.3664  140.2362  160.9701 C.3     1  UNL1        0.1213
     21 C         138.3736  138.7601  165.5363 C.3     1  UNL1        0.4200
     22 F         137.4057  138.9755  166.6617 F       1  UNL1       -0.1658
     23 F         138.3930  137.2901  165.8343 F       1  UNL1       -0.1658
     24 F         138.3542  140.2301  165.2382 F       1  UNL1       -0.1658
     25 C         137.5956  140.7705  156.3778 C.ar    1  UNL1        0.2202
     26 N         138.1461  139.7624  155.4131 N.ar    1  UNL1       -0.2121
     27 C         137.2174  138.9915  154.5226 C.ar    1  UNL1        0.1034
     28 C         135.7381  139.2288  154.5966 C.ar    1  UNL1        0.0414
     29 C         135.1876  140.2369  155.5613 C.ar    1  UNL1        0.1034
     30 N         136.1163  141.0078  156.4519 N.ar    1  UNL1       -0.2121
     31 N         142.3115  144.6850  160.9000 N.3     1  UNL1       -0.2975
     32 H         143.1565  144.8660  160.3581 H       1  UNL1        0.1232
     33 C         141.8021  144.0504  163.3673 C.3     1  UNL1        0.1591
     34 C         142.2440  143.4655  164.6760 C.3     1  UNL1        0.1729
     35 O         143.6371  142.9302  164.8260 O.3     1  UNL1       -0.3511
     36 C         144.5885  142.9797  163.6673 C.3     1  UNL1        0.1437
     37 C         144.1466  143.5647  162.3586 C.3     1  UNL1        0.0503
     38 C         142.7534  144.1000  162.2087 C.3     1  UNL1        0.0865
     39 C         139.5243  144.7223  164.4211 C.3     1  UNL1        0.1742
     40 O         140.4090  144.5858  163.2174 O.3     1  UNL1       -0.3496
@<TRIPOS>BOND
     1    39    40    1
     2    40    33    1
     3    33    34    1
     4    34    35    1
     5    35    36    1
     6    36    37    1
     7    37    38    1
     8    38    31    1
     9     1    31    1
    10     1     2    1
    11     3     2    1
    12     3     4    1
    13     4     5    1
    14     5    25    1
    15    25    26   ar
    16    26    27   ar
    17    27    28   ar
    18    28    29   ar
    19    29    30   ar
    20     5     6    1
    21     6     7    1
    22     7     9    1
    23     9    10    2
    24     9    11   am
    25    11    12    1
    26    12    13    1
    27    13    14    1
    28    14    15   ar
    29    15    16   ar
    30    16    17   ar
    31    17    21    1
    32    21    22    1
    33    21    23    1
    34    21    24    1
    35    17    18   ar
    36    18    19   ar
    37    19    20    1
    38     7     8    1
    39    38    33    1
    40     8     1    1
    41     7     3    1
    42    20    11    1
    43    30    25   ar
    44    19    14   ar
    45    31    32    1
@<TRIPOS>MOLECULE
*****
 40 45 0 0 0
SMALL
GASTEIGER

@<TRIPOS>ATOM
      1 C         143.3656  139.1778  160.2473 C.3     1  UNL1        0.0546
      2 C         142.4031  138.0443  160.0505 C.3     1  UNL1        0.0180
      3 C         141.4432  138.4343  158.9658 C.3     1  UNL1        0.0310
      4 C         140.2551  137.9749  158.1738 C.3     1  UNL1        0.0941
      5 N         139.8901  139.0654  157.2108 N.pl3   1  UNL1       -0.2777
      6 C         140.8526  140.1989  157.4076 C.3     1  UNL1        0.1022
      7 C         141.8125  139.8089  158.4922 C.3     1  UNL1        0.0902
      8 C         143.0006  140.2684  159.2842 C.3     1  UNL1        0.0261
      9 C         142.1817  141.1834  158.0187 C.2     1  UNL1        0.2267
     10 O         143.0407  141.3515  156.8005 O.2     1  UNL1       -0.2748
     11 N         141.6920  142.3900  158.7633 N.am    1  UNL1       -0.2750
     12 C         142.0613  143.7646  158.2898 C.3     1  UNL1        0.1000
     13 C         141.5716  144.9711  159.0344 C.3     1  UNL1        0.0670
     14 C         140.7126  144.8030  160.2526 C.ar    1  UNL1        0.0583
     15 N         140.2229  146.0096  160.9972 N.ar    1  UNL1       -0.2484
     16 C         139.3639  145.8416  162.2153 C.ar    1  UNL1        0.1023
     17 C         138.9946  144.4670  162.6889 C.ar    1  UNL1        0.0902
     18 C         139.4843  143.2605  161.9443 C.ar    1  UNL1        0.0040
     19 C         140.3433  143.4285  160.7261 C.ar    1  UNL1        0.0113
     20 C         140.8330  142.2220  159.9815 C.3     1  UNL1        0.1213
     21 C         138.1357  144.2990  163.9070 C.3     1  UNL1        0.4200
     22 F         137.2767  144.1310  165.1252 F       1  UNL1       -0.1658
     23 F         137.2450  143.3595  163.1494 F       1  UNL1       -0.1658
     24 F         139.0263  145.2385  164.6647 F       1  UNL1       -0.1658
     25 C         138.7607  139.0289  156.2241 C.ar    1  UNL1        0.2202
     26 N         138.5746  137.8305  155.3414 N.ar    1  UNL1       -0.2121
     27 C         137.4454  137.7939  154.3548 C.ar    1  UNL1        0.1034
     28 C         136.5023  138.9557  154.2510 C.ar    1  UNL1        0.0414
     29 C         136.6884  140.1540  155.1337 C.ar    1  UNL1        0.1034
     30 N         137.8176  140.1906  156.1203 N.ar    1  UNL1       -0.2121
     31 N         144.4949  139.2144  161.2339 N.3     1  UNL1       -0.2975
     32 H         144.6165  138.2618  161.5777 H       1  UNL1        0.1232
     33 C         143.6723  139.6388  163.6615 C.3     1  UNL1        0.1591
     34 C         143.5862  140.5267  164.8674 C.3     1  UNL1        0.1729
     35 O         144.2366  141.8782  164.8516 O.3     1  UNL1       -0.3511
     36 C         144.9732  142.3419  163.6298 C.3     1  UNL1        0.1437
     37 C         145.0593  141.4539  162.4240 C.3     1  UNL1        0.0503
     38 C         144.4088  140.1023  162.4398 C.3     1  UNL1        0.0865
     39 C         141.5261  138.1745  163.6625 C.3     1  UNL1        0.1742
     40 O         143.0218  138.2872  163.6773 O.3     1  UNL1       -0.3496
@<TRIPOS>BOND
     1    39    40    1
     2    40    33    1
     3    33    34    1
     4    34    35    1
     5    35    36    1
     6    36    37    1
     7    37    38    1
     8    38    31    1
     9     1    31    1
    10     1     2    1
    11     3     2    1
    12     3     4    1
    13     4     5    1
    14     5    25    1
    15    25    26   ar
    16    26    27   ar
    17    27    28   ar
    18    28    29   ar
    19    29    30   ar
    20     5     6    1
    21     6     7    1
    22     7     9    1
    23     9    10    2
    24     9    11   am
    25    11    12    1
    26    12    13    1
    27    13    14    1
    28    14    15   ar
    29    15    16   ar
    30    16    17   ar
    31    17    21    1
    32    21    22    1
    33    21    23    1
    34    21    24    1
    35    17    18   ar
    36    18    19   ar
    37    19    20    1
    38     7     8    1
    39    38    33    1
    40     8     1    1
    41     7     3    1
    42    20    11    1
    43    30    25   ar
    44    19    14   ar
    45    31    32    1
