@<TRIPOS>MOLECULE
*****
 29 32 0 0 0
SMALL
GASTEIGER

@<TRIPOS>ATOM
      1 C         142.5782  138.3321  162.1394 C.3     1  UNL1        0.0642
      2 C         142.7904  137.5834  160.8570 C.3     1  UNL1        0.0178
      3 C         143.6705  138.7488  161.1996 C.3     1  UNL1        0.0178
      4 N         142.7682  139.3480  163.2266 N.3     1  UNL1       -0.2712
      5 C         143.0949  138.9021  164.6210 C.3     1  UNL1        0.0897
      6 C         143.2849  139.9180  165.7080 C.3     1  UNL1        0.0899
      7 N         143.1482  141.3798  165.4007 N.3     1  UNL1       -0.2665
      8 C         142.8216  141.8257  164.0063 C.3     1  UNL1        0.0899
      9 C         142.6316  140.8098  162.9192 C.3     1  UNL1        0.0897
     10 C         143.3383  142.3958  166.4878 C.3     1  UNL1        0.0992
     11 C         142.5598  142.2821  167.7649 C.ar    1  UNL1       -0.0061
     12 C         143.2718  142.0005  169.0548 C.ar    1  UNL1       -0.0029
     13 C         142.4933  141.8869  170.3320 C.ar    1  UNL1       -0.0003
     14 C         141.0028  142.0549  170.3192 C.ar    1  UNL1       -0.0000
     15 C         140.2908  142.3365  169.0294 C.ar    1  UNL1       -0.0003
     16 C         141.0692  142.4501  167.7522 C.ar    1  UNL1       -0.0029
     17 C         141.4199  137.5626  162.7017 C.3     1  UNL1        0.1127
     18 C         139.3163  138.5409  161.5323 C.2     1  UNL1        0.2294
     19 O         139.9214  138.2413  160.1929 O.2     1  UNL1       -0.2745
     20 N         140.0654  138.2015  162.7867 N.am    1  UNL1       -0.2572
     21 C         139.4602  138.5011  164.1260 C.ar    1  UNL1        0.0561
     22 C         139.5291  139.8909  164.6863 C.ar    1  UNL1        0.0150
     23 C         138.9238  140.1905  166.0257 C.ar    1  UNL1        0.0036
     24 C         138.2496  139.1003  166.8048 C.ar    1  UNL1        0.0297
     25 C         138.1807  137.7107  166.2446 C.ar    1  UNL1        0.1414
     26 F         137.5065  136.6204  167.0237 F       1  UNL1       -0.2041
     27 C         138.7860  137.4110  164.9052 C.ar    1  UNL1        0.0445
     28 C         137.8184  140.6613  161.4303 C.3     1  UNL1        0.0101
     29 C         137.9618  139.1799  161.6172 C.3     1  UNL1        0.0856
@<TRIPOS>BOND
     1    28    29    1
     2    29    18    1
     3    18    19    2
     4    18    20   am
     5    20    17    1
     6    17     1    1
     7     1     4    1
     8     4     5    1
     9     5     6    1
    10     6     7    1
    11     7    10    1
    12    10    11    1
    13    11    12   ar
    14    12    13   ar
    15    13    14   ar
    16    14    15   ar
    17    15    16   ar
    18     7     8    1
    19     8     9    1
    20     1     2    1
    21     2     3    1
    22    20    21    1
    23    21    22   ar
    24    22    23   ar
    25    23    24   ar
    26    24    25   ar
    27    25    26    1
    28    25    27   ar
    29     3     1    1
    30    27    21   ar
    31     9     4    1
    32    16    11   ar
@<TRIPOS>MOLECULE
*****
 29 32 0 0 0
SMALL
GASTEIGER

@<TRIPOS>ATOM
      1 C         139.2382  140.4454  161.8531 C.3     1  UNL1        0.0642
      2 C         138.5888  140.2876  160.5101 C.3     1  UNL1        0.0178
      3 C         138.0295  139.5698  161.7026 C.3     1  UNL1        0.0178
      4 N         139.4993  140.2790  163.3208 N.3     1  UNL1       -0.2712
      5 C         138.5676  140.8938  164.3228 C.3     1  UNL1        0.0897
      6 C         138.8287  140.7274  165.7904 C.3     1  UNL1        0.0899
      7 N         140.0216  139.9463  166.2561 N.3     1  UNL1       -0.2665
      8 C         140.9533  139.3316  165.2542 C.3     1  UNL1        0.0899
      9 C         140.6922  139.4979  163.7865 C.3     1  UNL1        0.0897
     10 C         140.2827  139.7800  167.7239 C.3     1  UNL1        0.0992
     11 C         141.0706  140.8172  168.4678 C.ar    1  UNL1       -0.0061
     12 C         142.4947  140.5446  168.8519 C.ar    1  UNL1       -0.0029
     13 C         143.2826  141.5819  169.5959 C.ar    1  UNL1       -0.0003
     14 C         142.6463  142.8917  169.9556 C.ar    1  UNL1       -0.0000
     15 C         141.2222  143.1643  169.5714 C.ar    1  UNL1       -0.0003
     16 C         140.4343  142.1271  168.8275 C.ar    1  UNL1       -0.0029
     17 C         140.3561  141.3787  161.4938 C.3     1  UNL1        0.1127
     18 C         139.2782  143.6830  162.0213 C.2     1  UNL1        0.2294
     19 O         138.0423  143.2758  161.2751 O.2     1  UNL1       -0.2745
     20 N         140.4351  142.7345  162.1307 N.am    1  UNL1       -0.2572
     21 C         141.6708  143.1419  162.8769 C.ar    1  UNL1        0.0561
     22 C         142.7530  143.9073  162.1746 C.ar    1  UNL1        0.0150
     23 C         143.9888  144.3146  162.9209 C.ar    1  UNL1        0.0036
     24 C         144.1425  143.9565  164.3694 C.ar    1  UNL1        0.0297
     25 C         143.0604  143.1912  165.0716 C.ar    1  UNL1        0.1414
     26 F         143.2140  142.8330  166.5202 F       1  UNL1       -0.2041
     27 C         141.8245  142.7838  164.3254 C.ar    1  UNL1        0.0445
     28 C         139.7184  146.2364  161.8302 C.3     1  UNL1        0.0101
     29 C         139.3571  145.0389  162.6581 C.3     1  UNL1        0.0856
@<TRIPOS>BOND
     1    28    29    1
     2    29    18    1
     3    18    19    2
     4    18    20   am
     5    20    17    1
     6    17     1    1
     7     1     4    1
     8     4     5    1
     9     5     6    1
    10     6     7    1
    11     7    10    1
    12    10    11    1
    13    11    12   ar
    14    12    13   ar
    15    13    14   ar
    16    14    15   ar
    17    15    16   ar
    18     7     8    1
    19     8     9    1
    20     1     2    1
    21     2     3    1
    22    20    21    1
    23    21    22   ar
    24    22    23   ar
    25    23    24   ar
    26    24    25   ar
    27    25    26    1
    28    25    27   ar
    29     3     1    1
    30    27    21   ar
    31     9     4    1
    32    16    11   ar
@<TRIPOS>MOLECULE
*****
 29 32 0 0 0
SMALL
GASTEIGER

@<TRIPOS>ATOM
      1 C         139.4695  138.6284  162.9673 C.3     1  UNL1        0.0642
      2 C         139.8190  138.0041  161.6490 C.3     1  UNL1        0.0178
      3 C         140.6484  137.7069  162.8630 C.3     1  UNL1        0.0178
      4 N         139.5375  138.9745  164.4253 N.3     1  UNL1       -0.2712
      5 C         138.2834  139.0078  165.2476 C.3     1  UNL1        0.0897
      6 C         138.3515  139.3538  166.7055 C.3     1  UNL1        0.0899
      7 N         139.6736  139.6666  167.3412 N.3     1  UNL1       -0.2665
      8 C         140.9277  139.6333  166.5189 C.3     1  UNL1        0.0899
      9 C         140.8596  139.2873  165.0610 C.3     1  UNL1        0.0897
     10 C         139.7416  140.0126  168.7992 C.3     1  UNL1        0.0992
     11 C         140.7265  141.0358  169.2820 C.ar    1  UNL1       -0.0061
     12 C         142.1344  140.6290  169.6021 C.ar    1  UNL1       -0.0029
     13 C         143.1193  141.6523  170.0850 C.ar    1  UNL1       -0.0003
     14 C         142.6963  143.0821  170.2477 C.ar    1  UNL1       -0.0000
     15 C         141.2884  143.4888  169.9276 C.ar    1  UNL1       -0.0003
     16 C         140.3035  142.4657  169.4448 C.ar    1  UNL1       -0.0029
     17 C         138.2669  139.4298  162.5654 C.3     1  UNL1        0.1127
     18 C         138.3110  141.0873  160.5652 C.2     1  UNL1        0.2294
     19 O         138.0153  139.9582  159.6229 O.2     1  UNL1       -0.2745
     20 N         138.4368  140.8232  162.0363 N.am    1  UNL1       -0.2572
     21 C         138.7325  141.9522  162.9785 C.ar    1  UNL1        0.0561
     22 C         137.6076  142.6827  163.6501 C.ar    1  UNL1        0.0150
     23 C         137.9033  143.8119  164.5923 C.ar    1  UNL1        0.0036
     24 C         139.3239  144.2105  164.8628 C.ar    1  UNL1        0.0297
     25 C         140.4486  143.4801  164.1912 C.ar    1  UNL1        0.1414
     26 F         141.8693  143.8787  164.4616 F       1  UNL1       -0.2041
     27 C         140.1530  142.3509  163.2490 C.ar    1  UNL1        0.0445
     28 C         139.7607  142.8755  159.3608 C.3     1  UNL1        0.0101
     29 C         138.4809  142.4806  160.0361 C.3     1  UNL1        0.0856
@<TRIPOS>BOND
     1    28    29    1
     2    29    18    1
     3    18    19    2
     4    18    20   am
     5    20    17    1
     6    17     1    1
     7     1     4    1
     8     4     5    1
     9     5     6    1
    10     6     7    1
    11     7    10    1
    12    10    11    1
    13    11    12   ar
    14    12    13   ar
    15    13    14   ar
    16    14    15   ar
    17    15    16   ar
    18     7     8    1
    19     8     9    1
    20     1     2    1
    21     2     3    1
    22    20    21    1
    23    21    22   ar
    24    22    23   ar
    25    23    24   ar
    26    24    25   ar
    27    25    26    1
    28    25    27   ar
    29     3     1    1
    30    27    21   ar
    31     9     4    1
    32    16    11   ar
@<TRIPOS>MOLECULE
*****
 29 32 0 0 0
SMALL
GASTEIGER

@<TRIPOS>ATOM
      1 C         142.6747  140.4610  161.7487 C.3     1  UNL1        0.0642
      2 C         143.1364  140.2895  160.3318 C.3     1  UNL1        0.0178
      3 C         143.7057  139.4234  161.4161 C.3     1  UNL1        0.0178
      4 N         142.5569  140.2462  163.2286 N.3     1  UNL1       -0.2712
      5 C         141.3169  139.6252  163.7999 C.3     1  UNL1        0.0897
      6 C         141.1991  139.4104  165.2798 C.3     1  UNL1        0.0899
      7 N         142.3214  139.8167  166.1883 N.3     1  UNL1       -0.2665
      8 C         143.5615  140.4378  165.6169 C.3     1  UNL1        0.0899
      9 C         143.6792  140.6525  164.1371 C.3     1  UNL1        0.0897
     10 C         142.2036  139.6020  167.6682 C.3     1  UNL1        0.0992
     11 C         141.5502  140.6434  168.5275 C.ar    1  UNL1       -0.0061
     12 C         140.1692  140.4130  169.0657 C.ar    1  UNL1       -0.0029
     13 C         139.5158  141.4545  169.9251 C.ar    1  UNL1       -0.0003
     14 C         140.2434  142.7263  170.2462 C.ar    1  UNL1       -0.0000
     15 C         141.6244  142.9566  169.7079 C.ar    1  UNL1       -0.0003
     16 C         142.2778  141.9152  168.8486 C.ar    1  UNL1       -0.0029
     17 C         141.6847  141.5731  161.5673 C.3     1  UNL1        0.1127
     18 C         143.1398  143.6460  162.1468 C.2     1  UNL1        0.2294
     19 O         144.2296  143.1306  161.2542 O.2     1  UNL1       -0.2745
     20 N         141.8674  142.8673  162.3034 N.am    1  UNL1       -0.2572
     21 C         140.7777  143.3827  163.1961 C.ar    1  UNL1        0.0561
     22 C         139.6210  144.1363  162.6093 C.ar    1  UNL1        0.0150
     23 C         138.5313  144.6518  163.5020 C.ar    1  UNL1        0.0036
     24 C         138.5983  144.4136  164.9815 C.ar    1  UNL1        0.0297
     25 C         139.7548  143.6600  165.5682 C.ar    1  UNL1        0.1414
     26 F         139.8218  143.4218  167.0477 F       1  UNL1       -0.2041
     27 C         140.8446  143.1446  164.6755 C.ar    1  UNL1        0.0445
     28 C         143.8981  144.9403  164.2681 C.3     1  UNL1        0.0101
     29 C         143.3225  144.9402  162.8829 C.3     1  UNL1        0.0856
@<TRIPOS>BOND
     1    28    29    1
     2    29    18    1
     3    18    19    2
     4    18    20   am
     5    20    17    1
     6    17     1    1
     7     1     4    1
     8     4     5    1
     9     5     6    1
    10     6     7    1
    11     7    10    1
    12    10    11    1
    13    11    12   ar
    14    12    13   ar
    15    13    14   ar
    16    14    15   ar
    17    15    16   ar
    18     7     8    1
    19     8     9    1
    20     1     2    1
    21     2     3    1
    22    20    21    1
    23    21    22   ar
    24    22    23   ar
    25    23    24   ar
    26    24    25   ar
    27    25    26    1
    28    25    27   ar
    29     3     1    1
    30    27    21   ar
    31     9     4    1
    32    16    11   ar
@<TRIPOS>MOLECULE
*****
 29 32 0 0 0
SMALL
GASTEIGER

@<TRIPOS>ATOM
      1 C         139.3415  139.0241  162.6409 C.3     1  UNL1        0.0642
      2 C         138.3229  138.5248  161.6595 C.3     1  UNL1        0.0178
      3 C         138.6257  137.7306  162.8956 C.3     1  UNL1        0.0178
      4 N         140.2172  139.0810  163.8575 N.3     1  UNL1       -0.2712
      5 C         141.6882  138.8139  163.7359 C.3     1  UNL1        0.0897
      6 C         142.5638  138.8709  164.9525 C.3     1  UNL1        0.0899
      7 N         141.9685  139.1950  166.2905 N.3     1  UNL1       -0.2665
      8 C         140.4975  139.4622  166.4121 C.3     1  UNL1        0.0899
      9 C         139.6219  139.4052  165.1956 C.3     1  UNL1        0.0897
     10 C         142.8442  139.2520  167.5071 C.3     1  UNL1        0.0992
     11 C         142.5302  140.2158  168.6128 C.ar    1  UNL1       -0.0061
     12 C         141.8477  139.7323  169.8579 C.ar    1  UNL1       -0.0029
     13 C         141.5337  140.6961  170.9636 C.ar    1  UNL1       -0.0003
     14 C         141.9021  142.1434  170.8241 C.ar    1  UNL1       -0.0000
     15 C         142.5846  142.6270  169.5789 C.ar    1  UNL1       -0.0003
     16 C         142.8986  141.6632  168.4733 C.ar    1  UNL1       -0.0029
     17 C         139.7532  140.2977  161.9639 C.3     1  UNL1        0.1127
     18 C         138.2264  142.0438  163.1344 C.2     1  UNL1        0.2294
     19 O         137.0354  141.1643  162.8930 O.2     1  UNL1       -0.2745
     20 N         139.5852  141.6105  162.6698 N.am    1  UNL1       -0.2572
     21 C         140.7760  142.4900  162.9112 C.ar    1  UNL1        0.0561
     22 C         141.2295  143.4468  161.8487 C.ar    1  UNL1        0.0150
     23 C         142.4205  144.3263  162.0902 C.ar    1  UNL1        0.0036
     24 C         143.1578  144.2490  163.3941 C.ar    1  UNL1        0.0297
     25 C         142.7044  143.2923  164.4565 C.ar    1  UNL1        0.1414
     26 F         143.4418  143.2150  165.7606 F       1  UNL1       -0.2041
     27 C         141.5135  142.4128  164.2152 C.ar    1  UNL1        0.0445
     28 C         137.8907  144.6186  163.0471 C.3     1  UNL1        0.0101
     29 C         138.0584  143.3566  163.8403 C.3     1  UNL1        0.0856
@<TRIPOS>BOND
     1    28    29    1
     2    29    18    1
     3    18    19    2
     4    18    20   am
     5    20    17    1
     6    17     1    1
     7     1     4    1
     8     4     5    1
     9     5     6    1
    10     6     7    1
    11     7    10    1
    12    10    11    1
    13    11    12   ar
    14    12    13   ar
    15    13    14   ar
    16    14    15   ar
    17    15    16   ar
    18     7     8    1
    19     8     9    1
    20     1     2    1
    21     2     3    1
    22    20    21    1
    23    21    22   ar
    24    22    23   ar
    25    23    24   ar
    26    24    25   ar
    27    25    26    1
    28    25    27   ar
    29     3     1    1
    30    27    21   ar
    31     9     4    1
    32    16    11   ar
@<TRIPOS>MOLECULE
*****
 29 32 0 0 0
SMALL
GASTEIGER

@<TRIPOS>ATOM
      1 C         138.2577  140.0506  162.8931 C.3     1  UNL1        0.0642
      2 C         137.6676  140.4460  161.5719 C.3     1  UNL1        0.0178
      3 C         137.4369  141.3013  162.7825 C.3     1  UNL1        0.0178
      4 N         138.6047  140.0948  164.3518 N.3     1  UNL1       -0.2712
      5 C         139.2754  141.3070  164.9267 C.3     1  UNL1        0.0897
      6 C         139.6223  141.3512  166.3854 C.3     1  UNL1        0.0899
      7 N         139.2985  140.1832  167.2690 N.3     1  UNL1       -0.2665
      8 C         138.6277  138.9710  166.6941 C.3     1  UNL1        0.0899
      9 C         138.2808  138.9268  165.2355 C.3     1  UNL1        0.0897
     10 C         139.6454  140.2275  168.7278 C.3     1  UNL1        0.0992
     11 C         140.7709  141.0966  169.2050 C.ar    1  UNL1       -0.0061
     12 C         140.4946  142.4990  169.6599 C.ar    1  UNL1       -0.0029
     13 C         141.6202  143.3682  170.1371 C.ar    1  UNL1       -0.0003
     14 C         143.0220  142.8349  170.1594 C.ar    1  UNL1       -0.0000
     15 C         143.2983  141.4325  169.7044 C.ar    1  UNL1       -0.0003
     16 C         142.1728  140.5634  169.2272 C.ar    1  UNL1       -0.0029
     17 C         138.9580  138.7846  162.4972 C.3     1  UNL1        0.1127
     18 C         140.8428  138.6525  160.7139 C.2     1  UNL1        0.2294
     19 O         139.8133  138.4636  159.6396 O.2     1  UNL1       -0.2745
     20 N         140.4153  138.8130  162.1427 N.am    1  UNL1       -0.2572
     21 C         141.4449  139.0018  163.2170 C.ar    1  UNL1        0.0561
     22 C         141.6709  137.9254  164.2369 C.ar    1  UNL1        0.0150
     23 C         142.7006  138.1143  165.3112 C.ar    1  UNL1        0.0036
     24 C         143.5043  139.3796  165.3655 C.ar    1  UNL1        0.0297
     25 C         143.2784  140.4560  164.3457 C.ar    1  UNL1        0.1414
     26 F         144.0821  141.7214  164.4000 F       1  UNL1       -0.2041
     27 C         142.2487  140.2671  163.2713 C.ar    1  UNL1        0.0445
     28 C         143.1333  137.4429  160.5119 C.3     1  UNL1        0.0101
     29 C         142.3001  138.6808  160.3594 C.3     1  UNL1        0.0856
@<TRIPOS>BOND
     1    28    29    1
     2    29    18    1
     3    18    19    2
     4    18    20   am
     5    20    17    1
     6    17     1    1
     7     1     4    1
     8     4     5    1
     9     5     6    1
    10     6     7    1
    11     7    10    1
    12    10    11    1
    13    11    12   ar
    14    12    13   ar
    15    13    14   ar
    16    14    15   ar
    17    15    16   ar
    18     7     8    1
    19     8     9    1
    20     1     2    1
    21     2     3    1
    22    20    21    1
    23    21    22   ar
    24    22    23   ar
    25    23    24   ar
    26    24    25   ar
    27    25    26    1
    28    25    27   ar
    29     3     1    1
    30    27    21   ar
    31     9     4    1
    32    16    11   ar
@<TRIPOS>MOLECULE
*****
 29 32 0 0 0
SMALL
GASTEIGER

@<TRIPOS>ATOM
      1 C         139.1763  140.4635  166.0731 C.3     1  UNL1        0.0642
      2 C         139.0631  139.6297  167.3148 C.3     1  UNL1        0.0178
      3 C         138.4084  139.1753  166.0440 C.3     1  UNL1        0.0178
      4 N         139.0018  140.9030  164.6496 N.3     1  UNL1       -0.2712
      5 C         139.9157  140.3745  163.5840 C.3     1  UNL1        0.0897
      6 C         139.7411  140.8140  162.1606 C.3     1  UNL1        0.0899
      7 N         138.6527  141.7821  161.8026 N.3     1  UNL1       -0.2665
      8 C         137.7388  142.3106  162.8681 C.3     1  UNL1        0.0899
      9 C         137.9134  141.8711  164.2916 C.3     1  UNL1        0.0897
     10 C         138.4782  142.2216  160.3791 C.3     1  UNL1        0.0992
     11 C         139.3797  143.2728  159.8028 C.ar    1  UNL1       -0.0061
     12 C         139.6294  143.3185  158.3244 C.ar    1  UNL1       -0.0029
     13 C         140.5310  144.3698  157.7482 C.ar    1  UNL1       -0.0003
     14 C         141.1829  145.3753  158.6503 C.ar    1  UNL1       -0.0000
     15 C         140.9332  145.3297  160.1287 C.ar    1  UNL1       -0.0003
     16 C         140.0317  144.2784  160.7050 C.ar    1  UNL1       -0.0029
     17 C         140.0048  141.5991  166.5965 C.3     1  UNL1        0.1127
     18 C         141.6645  141.5859  168.5954 C.2     1  UNL1        0.2294
     19 O         140.5815  142.0978  169.4981 O.2     1  UNL1       -0.2745
     20 N         141.3762  141.3366  167.1446 N.am    1  UNL1       -0.2572
     21 C         142.4593  140.8247  166.2419 C.ar    1  UNL1        0.0561
     22 C         142.6630  139.3477  166.0775 C.ar    1  UNL1        0.0150
     23 C         143.7461  138.8358  165.1748 C.ar    1  UNL1        0.0036
     24 C         144.6256  139.8009  164.4365 C.ar    1  UNL1        0.0297
     25 C         144.4219  141.2778  164.6009 C.ar    1  UNL1        0.1414
     26 F         145.3014  142.2430  163.8626 F       1  UNL1       -0.2041
     27 C         143.3388  141.7898  165.5036 C.ar    1  UNL1        0.0445
     28 C         143.8084  142.4322  169.7944 C.3     1  UNL1        0.0101
     29 C         143.0359  141.3233  169.1434 C.3     1  UNL1        0.0856
@<TRIPOS>BOND
     1    28    29    1
     2    29    18    1
     3    18    19    2
     4    18    20   am
     5    20    17    1
     6    17     1    1
     7     1     4    1
     8     4     5    1
     9     5     6    1
    10     6     7    1
    11     7    10    1
    12    10    11    1
    13    11    12   ar
    14    12    13   ar
    15    13    14   ar
    16    14    15   ar
    17    15    16   ar
    18     7     8    1
    19     8     9    1
    20     1     2    1
    21     2     3    1
    22    20    21    1
    23    21    22   ar
    24    22    23   ar
    25    23    24   ar
    26    24    25   ar
    27    25    26    1
    28    25    27   ar
    29     3     1    1
    30    27    21   ar
    31     9     4    1
    32    16    11   ar
@<TRIPOS>MOLECULE
*****
 29 32 0 0 0
SMALL
GASTEIGER

@<TRIPOS>ATOM
      1 C         140.6826  138.8731  162.6190 C.3     1  UNL1        0.0642
      2 C         141.0855  138.1159  161.3885 C.3     1  UNL1        0.0178
      3 C         140.9514  137.3995  162.6995 C.3     1  UNL1        0.0178
      4 N         140.3305  139.1522  164.0502 N.3     1  UNL1       -0.2712
      5 C         138.9087  139.4422  164.4300 C.3     1  UNL1        0.0897
      6 C         138.5567  139.7213  165.8611 C.3     1  UNL1        0.0899
      7 N         139.6265  139.7105  166.9124 N.3     1  UNL1       -0.2665
      8 C         141.0483  139.4205  166.5327 C.3     1  UNL1        0.0899
      9 C         141.4003  139.1414  165.1016 C.3     1  UNL1        0.0897
     10 C         139.2744  139.9896  168.3436 C.3     1  UNL1        0.0992
     11 C         140.2028  140.7983  169.2003 C.ar    1  UNL1       -0.0061
     12 C         140.9737  140.1358  170.3034 C.ar    1  UNL1       -0.0029
     13 C         141.9022  140.9446  171.1602 C.ar    1  UNL1       -0.0003
     14 C         142.0596  142.4158  170.9139 C.ar    1  UNL1       -0.0000
     15 C         141.2887  143.0783  169.8108 C.ar    1  UNL1       -0.0003
     16 C         140.3603  142.2696  168.9540 C.ar    1  UNL1       -0.0029
     17 C         140.5360  140.2497  162.0416 C.3     1  UNL1        0.1127
     18 C         142.8354  141.3694  162.4988 C.2     1  UNL1        0.2294
     19 O         143.5290  140.2150  161.8383 O.2     1  UNL1       -0.2745
     20 N         141.3390  141.3868  162.6005 N.am    1  UNL1       -0.2572
     21 C         140.6455  142.5412  163.2610 C.ar    1  UNL1        0.0561
     22 C         140.5165  142.5834  164.7549 C.ar    1  UNL1        0.0150
     23 C         139.8229  143.7380  165.4154 C.ar    1  UNL1        0.0036
     24 C         139.2585  144.8501  164.5820 C.ar    1  UNL1        0.0297
     25 C         139.3876  144.8079  163.0883 C.ar    1  UNL1        0.1414
     26 F         138.8232  145.9201  162.2549 F       1  UNL1       -0.2041
     27 C         140.0811  143.6534  162.4277 C.ar    1  UNL1        0.0445
     28 C         144.6171  142.2594  164.1673 C.3     1  UNL1        0.0101
     29 C         143.6384  142.5065  163.0577 C.3     1  UNL1        0.0856
@<TRIPOS>BOND
     1    28    29    1
     2    29    18    1
     3    18    19    2
     4    18    20   am
     5    20    17    1
     6    17     1    1
     7     1     4    1
     8     4     5    1
     9     5     6    1
    10     6     7    1
    11     7    10    1
    12    10    11    1
    13    11    12   ar
    14    12    13   ar
    15    13    14   ar
    16    14    15   ar
    17    15    16   ar
    18     7     8    1
    19     8     9    1
    20     1     2    1
    21     2     3    1
    22    20    21    1
    23    21    22   ar
    24    22    23   ar
    25    23    24   ar
    26    24    25   ar
    27    25    26    1
    28    25    27   ar
    29     3     1    1
    30    27    21   ar
    31     9     4    1
    32    16    11   ar
@<TRIPOS>MOLECULE
*****
 29 32 0 0 0
SMALL
GASTEIGER

@<TRIPOS>ATOM
      1 C         143.1247  142.4196  164.3788 C.3     1  UNL1        0.0642
      2 C         143.3752  142.5612  165.8509 C.3     1  UNL1        0.0178
      3 C         143.9248  143.5785  164.8953 C.3     1  UNL1        0.0178
      4 N         143.1558  142.7162  162.9087 N.3     1  UNL1       -0.2712
      5 C         144.1505  142.0241  162.0248 C.3     1  UNL1        0.0897
      6 C         144.1816  142.3207  160.5548 C.3     1  UNL1        0.0899
      7 N         143.2179  143.3095  159.9686 N.3     1  UNL1       -0.2665
      8 C         142.2231  144.0017  160.8525 C.3     1  UNL1        0.0899
      9 C         142.1920  143.7050  162.3225 C.3     1  UNL1        0.0897
     10 C         143.2490  143.6062  158.4985 C.3     1  UNL1        0.0992
     11 C         142.0316  144.1599  157.8192 C.ar    1  UNL1       -0.0061
     12 C         141.9486  145.6244  157.5059 C.ar    1  UNL1       -0.0029
     13 C         140.7312  146.1782  156.8265 C.ar    1  UNL1       -0.0003
     14 C         139.5969  145.2674  156.4606 C.ar    1  UNL1       -0.0000
     15 C         139.6800  143.8028  156.7740 C.ar    1  UNL1       -0.0003
     16 C         140.8973  143.2491  157.4533 C.ar    1  UNL1       -0.0029
     17 C         142.3137  141.1577  164.3727 C.3     1  UNL1        0.1127
     18 C         140.7072  140.0824  166.1084 C.2     1  UNL1        0.2294
     19 O         141.7663  139.0837  166.4700 O.2     1  UNL1       -0.2745
     20 N         140.9809  141.1195  165.0598 N.am    1  UNL1       -0.2572
     21 C         139.9218  142.1182  164.6982 C.ar    1  UNL1        0.0561
     22 C         139.0702  141.9015  163.4826 C.ar    1  UNL1        0.0150
     23 C         138.0110  142.9003  163.1210 C.ar    1  UNL1        0.0036
     24 C         137.8035  144.1157  163.9752 C.ar    1  UNL1        0.0297
     25 C         138.6550  144.3324  165.1908 C.ar    1  UNL1        0.1414
     26 F         138.4475  145.5480  166.0450 F       1  UNL1       -0.2041
     27 C         139.7142  143.3337  165.5523 C.ar    1  UNL1        0.0445
     28 C         138.2768  139.1760  166.2555 C.3     1  UNL1        0.0101
     29 C         139.3744  140.0442  166.7956 C.3     1  UNL1        0.0856
@<TRIPOS>BOND
     1    28    29    1
     2    29    18    1
     3    18    19    2
     4    18    20   am
     5    20    17    1
     6    17     1    1
     7     1     4    1
     8     4     5    1
     9     5     6    1
    10     6     7    1
    11     7    10    1
    12    10    11    1
    13    11    12   ar
    14    12    13   ar
    15    13    14   ar
    16    14    15   ar
    17    15    16   ar
    18     7     8    1
    19     8     9    1
    20     1     2    1
    21     2     3    1
    22    20    21    1
    23    21    22   ar
    24    22    23   ar
    25    23    24   ar
    26    24    25   ar
    27    25    26    1
    28    25    27   ar
    29     3     1    1
    30    27    21   ar
    31     9     4    1
    32    16    11   ar
