@<TRIPOS>MOLECULE
*****
 36 41 0 0 0
SMALL
GASTEIGER

@<TRIPOS>ATOM
      1 C         139.8341  146.6317  155.8759 C.ar    1  UNL1       -0.0065
      2 C         140.8402  145.9759  154.9772 C.ar    1  UNL1       -0.0032
      3 C         141.8730  145.0540  155.5545 C.ar    1  UNL1       -0.0026
      4 C         141.8998  144.7878  157.0304 C.ar    1  UNL1        0.0019
      5 C         140.8937  145.4435  157.9291 C.ar    1  UNL1       -0.0200
      6 C         139.8609  146.3655  157.3519 C.ar    1  UNL1       -0.0071
      7 C         141.1646  144.9937  159.3342 C.3     1  UNL1        0.0519
      8 C         142.3382  144.0600  159.3039 C.2     1  UNL1        0.0074
      9 C         143.2308  143.2049  160.1535 C.2     1  UNL1        0.0976
     10 N         144.2369  142.5491  159.2548 N.2     1  UNL1       -0.1526
     11 N         143.9660  142.9989  157.8497 N.2     1  UNL1       -0.1678
     12 C         142.7925  143.9326  157.8801 C.3     1  UNL1        0.1672
     13 C         143.1344  143.0354  161.6408 C.ar    1  UNL1        0.0265
     14 C         142.9764  144.1380  162.6455 C.ar    1  UNL1        0.0376
     15 S         142.9233  143.5175  164.0101 S.2     1  UNL1       -0.0780
     16 C         143.0485  142.0315  163.8488 C.ar    1  UNL1        0.0711
     17 C         143.1790  141.7335  162.3846 C.ar    1  UNL1        0.0168
     18 C         143.0441  141.0209  164.9572 C.1     1  UNL1       -0.0543
     19 C         143.0397  140.0102  166.0657 C.1     1  UNL1       -0.0388
     20 C         143.0352  138.9996  167.1741 C.3     1  UNL1        0.2814
     21 O         143.0504  139.4541  168.6035 O.3     1  UNL1       -0.4612
     22 C         141.9995  140.4022  169.1003 C.ar    1  UNL1        0.1409
     23 C         142.3226  141.8569  169.2719 C.ar    1  UNL1        0.0370
     24 C         141.2718  142.8051  169.7686 C.ar    1  UNL1        0.0040
     25 C         139.8979  142.2985  170.0937 C.ar    1  UNL1        0.0116
     26 C         139.5748  140.8438  169.9221 C.ar    1  UNL1        0.0607
     27 CL        138.2008  140.3373  170.2472 Cl      1  UNL1       -0.0821
     28 C         140.6256  139.8957  169.4254 C.ar    1  UNL1        0.0483
     29 C         138.8013  147.5537  155.2987 C.3     1  UNL1        0.0992
     30 C         140.2870  153.1773  153.8266 C.3     1  UNL1        0.0897
     31 N         139.9156  151.7714  154.1946 N.3     1  UNL1       -0.2691
     32 C         140.4655  150.6197  153.4066 C.3     1  UNL1        0.0897
     33 C         140.0940  149.2137  153.7746 C.3     1  UNL1        0.0899
     34 N         139.1727  148.9596  154.9307 N.3     1  UNL1       -0.2665
     35 C         138.6228  150.1114  155.7188 C.3     1  UNL1        0.0899
     36 C         138.9943  151.5173  155.3507 C.3     1  UNL1        0.0897
@<TRIPOS>BOND
     1    30    31    1
     2    31    32    1
     3    32    33    1
     4    33    34    1
     5    34    29    1
     6    29     1    1
     7     1     2   ar
     8     2     3   ar
     9     3     4   ar
    10     4     5   ar
    11     5     6   ar
    12     5     7    1
    13     7     8    1
    14     8     9    2
    15     9    13    1
    16    13    14   ar
    17    14    15   ar
    18    15    16   ar
    19    16    18    1
    20    18    19    3
    21    19    20    1
    22    20    21    1
    23    21    22    1
    24    22    23   ar
    25    23    24   ar
    26    24    25   ar
    27    25    26   ar
    28    26    27    1
    29    26    28   ar
    30    16    17   ar
    31     9    10    1
    32    10    11    2
    33    11    12    1
    34    34    35    1
    35    35    36    1
    36    36    31    1
    37     6     1   ar
    38    12     8    1
    39    12     4    1
    40    17    13   ar
    41    28    22   ar
@<TRIPOS>MOLECULE
*****
 36 41 0 0 0
SMALL
GASTEIGER

@<TRIPOS>ATOM
      1 C         138.5081  140.1150  165.0129 C.ar    1  UNL1       -0.0065
      2 C         138.3608  141.6070  164.9669 C.ar    1  UNL1       -0.0032
      3 C         138.3251  142.3167  163.6459 C.ar    1  UNL1       -0.0026
      4 C         138.4367  141.5344  162.3710 C.ar    1  UNL1        0.0019
      5 C         138.5840  140.0423  162.4170 C.ar    1  UNL1       -0.0200
      6 C         138.6197  139.3327  163.7380 C.ar    1  UNL1       -0.0071
      7 C         138.6712  139.5414  161.0058 C.3     1  UNL1        0.0519
      8 C         138.5778  140.7239  160.0876 C.2     1  UNL1        0.0074
      9 C         138.5739  141.1451  158.6480 C.2     1  UNL1        0.0976
     10 N         138.4266  142.6371  158.6019 N.2     1  UNL1       -0.1526
     11 N         138.3395  143.1380  160.0131 N.2     1  UNL1       -0.1678
     12 C         138.4329  141.9556  160.9313 C.3     1  UNL1        0.1672
     13 C         138.6960  140.2341  157.4625 C.ar    1  UNL1        0.0265
     14 C         138.0130  140.4132  156.1390 C.ar    1  UNL1        0.0376
     15 S         138.4173  139.2739  155.2509 S.2     1  UNL1       -0.0780
     16 C         139.3502  138.3909  156.0255 C.ar    1  UNL1        0.0711
     17 C         139.5224  138.9843  157.3923 C.ar    1  UNL1        0.0168
     18 C         139.9972  137.1349  155.5218 C.1     1  UNL1       -0.0543
     19 C         140.6443  135.8788  155.0181 C.1     1  UNL1       -0.0388
     20 C         141.2913  134.6228  154.5143 C.3     1  UNL1        0.2814
     21 O         141.2503  133.3735  155.3434 O.3     1  UNL1       -0.4612
     22 C         142.5106  132.6009  155.5985 C.ar    1  UNL1        0.1409
     23 C         142.9223  131.5063  154.6591 C.ar    1  UNL1        0.0370
     24 C         144.1825  130.7338  154.9141 C.ar    1  UNL1        0.0040
     25 C         145.0310  131.0558  156.1084 C.ar    1  UNL1        0.0116
     26 C         144.6192  132.1504  157.0477 C.ar    1  UNL1        0.0607
     27 CL        145.4678  132.4724  158.2421 Cl      1  UNL1       -0.0821
     28 C         143.3590  132.9229  156.7928 C.ar    1  UNL1        0.0483
     29 C         138.5438  139.4052  166.3340 C.3     1  UNL1        0.0992
     30 C         142.9857  140.5089  170.2135 C.3     1  UNL1        0.0897
     31 N         141.8752  140.2330  169.2436 N.3     1  UNL1       -0.2691
     32 C         140.4475  140.3067  169.6975 C.3     1  UNL1        0.0897
     33 C         139.3369  140.0308  168.7276 C.3     1  UNL1        0.0899
     34 N         139.6542  139.6812  167.3038 N.3     1  UNL1       -0.2665
     35 C         141.0821  139.6075  166.8500 C.3     1  UNL1        0.0899
     36 C         142.1925  139.8834  167.8198 C.3     1  UNL1        0.0897
@<TRIPOS>BOND
     1    30    31    1
     2    31    32    1
     3    32    33    1
     4    33    34    1
     5    34    29    1
     6    29     1    1
     7     1     2   ar
     8     2     3   ar
     9     3     4   ar
    10     4     5   ar
    11     5     6   ar
    12     5     7    1
    13     7     8    1
    14     8     9    2
    15     9    13    1
    16    13    14   ar
    17    14    15   ar
    18    15    16   ar
    19    16    18    1
    20    18    19    3
    21    19    20    1
    22    20    21    1
    23    21    22    1
    24    22    23   ar
    25    23    24   ar
    26    24    25   ar
    27    25    26   ar
    28    26    27    1
    29    26    28   ar
    30    16    17   ar
    31     9    10    1
    32    10    11    2
    33    11    12    1
    34    34    35    1
    35    35    36    1
    36    36    31    1
    37     6     1   ar
    38    12     8    1
    39    12     4    1
    40    17    13   ar
    41    28    22   ar
@<TRIPOS>MOLECULE
*****
 36 41 0 0 0
SMALL
GASTEIGER

@<TRIPOS>ATOM
      1 C         142.5622  136.3092  155.9058 C.ar    1  UNL1       -0.0065
      2 C         141.6847  136.7562  154.7744 C.ar    1  UNL1       -0.0032
      3 C         140.5473  137.6988  155.0347 C.ar    1  UNL1       -0.0026
      4 C         140.2874  138.1943  156.4264 C.ar    1  UNL1        0.0019
      5 C         141.1649  137.7473  157.5578 C.ar    1  UNL1       -0.0200
      6 C         142.3023  136.8047  157.2975 C.ar    1  UNL1       -0.0071
      7 C         140.6687  138.3988  158.8145 C.3     1  UNL1        0.0519
      8 C         139.4846  139.2485  158.4598 C.2     1  UNL1        0.0074
      9 C         138.4461  140.1763  159.0173 C.2     1  UNL1        0.0976
     10 N         137.5686  140.6233  157.8858 N.2     1  UNL1       -0.1526
     11 N         138.0648  139.9718  156.6291 N.2     1  UNL1       -0.1678
     12 C         139.2489  139.1222  156.9838 C.3     1  UNL1        0.1672
     13 C         138.3092  140.5853  160.4539 C.ar    1  UNL1        0.0265
     14 C         138.1269  141.9862  160.9583 C.ar    1  UNL1        0.0376
     15 S         138.0356  141.9319  162.4545 S.2     1  UNL1       -0.0780
     16 C         138.1615  140.4975  162.8749 C.ar    1  UNL1        0.0711
     17 C         138.3306  139.6653  161.6384 C.ar    1  UNL1        0.0168
     18 C         138.1248  139.9852  164.2842 C.1     1  UNL1       -0.0543
     19 C         138.0880  139.4729  165.6935 C.1     1  UNL1       -0.0388
     20 C         138.0513  138.9606  167.1029 C.3     1  UNL1        0.2814
     21 O         139.0315  139.4767  168.1143 O.3     1  UNL1       -0.4612
     22 C         140.2569  140.2145  167.6625 C.ar    1  UNL1        0.1409
     23 C         140.4272  141.6652  168.0038 C.ar    1  UNL1        0.0370
     24 C         141.6526  142.4031  167.5521 C.ar    1  UNL1        0.0040
     25 C         142.7075  141.6903  166.7591 C.ar    1  UNL1        0.0116
     26 C         142.5372  140.2396  166.4178 C.ar    1  UNL1        0.0607
     27 CL        143.5922  139.5268  165.6247 Cl      1  UNL1       -0.0821
     28 C         141.3118  139.5017  166.8695 C.ar    1  UNL1        0.0483
     29 C         143.6997  135.3666  155.6455 C.3     1  UNL1        0.0992
     30 C         143.2907  129.6283  157.3496 C.3     1  UNL1        0.0897
     31 N         143.3930  131.0628  156.9236 N.3     1  UNL1       -0.2691
     32 C         142.5120  131.5842  155.8272 C.3     1  UNL1        0.0897
     33 C         142.6142  133.0188  155.4012 C.3     1  UNL1        0.0899
     34 N         143.5975  133.9320  156.0715 N.3     1  UNL1       -0.2665
     35 C         144.4784  133.4106  157.1680 C.3     1  UNL1        0.0899
     36 C         144.3762  131.9760  157.5940 C.3     1  UNL1        0.0897
@<TRIPOS>BOND
     1    30    31    1
     2    31    32    1
     3    32    33    1
     4    33    34    1
     5    34    29    1
     6    29     1    1
     7     1     2   ar
     8     2     3   ar
     9     3     4   ar
    10     4     5   ar
    11     5     6   ar
    12     5     7    1
    13     7     8    1
    14     8     9    2
    15     9    13    1
    16    13    14   ar
    17    14    15   ar
    18    15    16   ar
    19    16    18    1
    20    18    19    3
    21    19    20    1
    22    20    21    1
    23    21    22    1
    24    22    23   ar
    25    23    24   ar
    26    24    25   ar
    27    25    26   ar
    28    26    27    1
    29    26    28   ar
    30    16    17   ar
    31     9    10    1
    32    10    11    2
    33    11    12    1
    34    34    35    1
    35    35    36    1
    36    36    31    1
    37     6     1   ar
    38    12     8    1
    39    12     4    1
    40    17    13   ar
    41    28    22   ar
@<TRIPOS>MOLECULE
*****
 36 41 0 0 0
SMALL
GASTEIGER

@<TRIPOS>ATOM
      1 C         136.2952  141.5384  155.4979 C.ar    1  UNL1       -0.0065
      2 C         136.9167  142.7686  154.9059 C.ar    1  UNL1       -0.0032
      3 C         137.9507  143.5325  155.6786 C.ar    1  UNL1       -0.0026
      4 C         138.3633  143.0662  157.0433 C.ar    1  UNL1        0.0019
      5 C         137.7419  141.8361  157.6353 C.ar    1  UNL1       -0.0200
      6 C         136.7078  141.0722  156.8626 C.ar    1  UNL1       -0.0071
      7 C         138.3442  141.6194  158.9918 C.3     1  UNL1        0.0519
      8 C         139.3380  142.7157  159.2383 C.2     1  UNL1        0.0074
      9 C         140.3244  143.2593  160.2290 C.2     1  UNL1        0.0976
     10 N         140.9458  144.4894  159.6370 N.2     1  UNL1       -0.1526
     11 N         140.3435  144.7061  158.2804 N.2     1  UNL1       -0.1678
     12 C         139.3498  143.6099  158.0340 C.3     1  UNL1        0.1672
     13 C         140.6348  142.6752  161.5753 C.ar    1  UNL1        0.0265
     14 C         141.9700  142.6957  162.2586 C.ar    1  UNL1        0.0376
     15 S         141.8250  142.0013  163.5803 S.2     1  UNL1       -0.0780
     16 C         140.4002  141.5516  163.7137 C.ar    1  UNL1        0.0711
     17 C         139.6647  141.9681  162.4746 C.ar    1  UNL1        0.0168
     18 C         139.8138  140.8148  164.8813 C.1     1  UNL1       -0.0543
     19 C         139.2275  140.0780  166.0490 C.1     1  UNL1       -0.0388
     20 C         138.6412  139.3412  167.2166 C.3     1  UNL1        0.2814
     21 O         139.2413  139.5006  168.5820 O.3     1  UNL1       -0.4612
     22 C         140.2909  140.5449  168.8227 C.ar    1  UNL1        0.1409
     23 C         141.7382  140.2183  168.6022 C.ar    1  UNL1        0.0370
     24 C         142.7879  141.2624  168.8429 C.ar    1  UNL1        0.0040
     25 C         142.3902  142.6332  169.3041 C.ar    1  UNL1        0.0116
     26 C         140.9428  142.9598  169.5246 C.ar    1  UNL1        0.0607
     27 CL        140.5452  144.3307  169.9858 Cl      1  UNL1       -0.0821
     28 C         139.8932  141.9157  169.2839 C.ar    1  UNL1        0.0483
     29 C         135.2611  140.7745  154.7252 C.3     1  UNL1        0.0992
     30 C         130.0182  139.3858  157.2909 C.3     1  UNL1        0.0897
     31 N         131.3289  139.7330  156.6495 N.3     1  UNL1       -0.2691
     32 C         131.4879  141.0377  155.9268 C.3     1  UNL1        0.0897
     33 C         132.7987  141.3849  155.2853 C.3     1  UNL1        0.0899
     34 N         133.9504  140.4273  155.3666 N.3     1  UNL1       -0.2665
     35 C         133.7913  139.1225  156.0893 C.3     1  UNL1        0.0899
     36 C         132.4806  138.7754  156.7307 C.3     1  UNL1        0.0897
@<TRIPOS>BOND
     1    30    31    1
     2    31    32    1
     3    32    33    1
     4    33    34    1
     5    34    29    1
     6    29     1    1
     7     1     2   ar
     8     2     3   ar
     9     3     4   ar
    10     4     5   ar
    11     5     6   ar
    12     5     7    1
    13     7     8    1
    14     8     9    2
    15     9    13    1
    16    13    14   ar
    17    14    15   ar
    18    15    16   ar
    19    16    18    1
    20    18    19    3
    21    19    20    1
    22    20    21    1
    23    21    22    1
    24    22    23   ar
    25    23    24   ar
    26    24    25   ar
    27    25    26   ar
    28    26    27    1
    29    26    28   ar
    30    16    17   ar
    31     9    10    1
    32    10    11    2
    33    11    12    1
    34    34    35    1
    35    35    36    1
    36    36    31    1
    37     6     1   ar
    38    12     8    1
    39    12     4    1
    40    17    13   ar
    41    28    22   ar
@<TRIPOS>MOLECULE
*****
 36 41 0 0 0
SMALL
GASTEIGER

@<TRIPOS>ATOM
      1 C         136.5959  140.9872  155.5354 C.ar    1  UNL1       -0.0065
      2 C         137.2259  141.9026  154.5279 C.ar    1  UNL1       -0.0032
      3 C         138.2073  142.9460  154.9732 C.ar    1  UNL1       -0.0026
      4 C         138.5586  143.0739  156.4258 C.ar    1  UNL1        0.0019
      5 C         137.9286  142.1585  157.4332 C.ar    1  UNL1       -0.0200
      6 C         136.9472  141.1151  156.9880 C.ar    1  UNL1       -0.0071
      7 C         138.4657  142.5188  158.7866 C.3     1  UNL1        0.0519
      8 C         139.4277  143.6569  158.6156 C.2     1  UNL1        0.0074
      9 C         140.3542  144.5829  159.3464 C.2     1  UNL1        0.0976
     10 N         140.9842  145.4984  158.3390 N.2     1  UNL1       -0.1526
     11 N         140.4471  145.1381  156.9856 N.2     1  UNL1       -0.1678
     12 C         139.4851  144.0000  157.1566 C.3     1  UNL1        0.1672
     13 C         140.6064  144.5919  160.8251 C.ar    1  UNL1        0.0265
     14 C         140.2864  145.7145  161.7672 C.ar    1  UNL1        0.0376
     15 S         140.7050  145.2963  163.1456 S.2     1  UNL1       -0.0780
     16 C         141.2837  143.9153  163.0553 C.ar    1  UNL1        0.0711
     17 C         141.2227  143.4800  161.6211 C.ar    1  UNL1        0.0168
     18 C         141.8279  143.1109  164.1984 C.1     1  UNL1       -0.0543
     19 C         142.3721  142.3065  165.3416 C.1     1  UNL1       -0.0388
     20 C         142.9163  141.5021  166.4847 C.3     1  UNL1        0.2814
     21 O         143.0171  140.0098  166.3708 O.3     1  UNL1       -0.4612
     22 C         141.8458  139.2147  165.8748 C.ar    1  UNL1        0.1409
     23 C         142.0583  138.0955  164.8990 C.ar    1  UNL1        0.0370
     24 C         140.8871  137.3003  164.4030 C.ar    1  UNL1        0.0040
     25 C         139.5034  137.6245  164.8828 C.ar    1  UNL1        0.0116
     26 C         139.2909  138.7437  165.8586 C.ar    1  UNL1        0.0607
     27 CL        137.9071  139.0678  166.3384 Cl      1  UNL1       -0.0821
     28 C         140.4621  139.5388  166.3546 C.ar    1  UNL1        0.0483
     29 C         135.6144  139.9438  155.0902 C.3     1  UNL1        0.0992
     30 C         129.8569  140.3469  156.7296 C.3     1  UNL1        0.0897
     31 N         131.2963  140.2461  156.3198 N.3     1  UNL1       -0.2691
     32 C         132.1079  139.0498  156.7197 C.3     1  UNL1        0.0897
     33 C         133.5474  138.9490  156.3099 C.3     1  UNL1        0.0899
     34 N         134.1751  140.0445  155.5001 N.3     1  UNL1       -0.2665
     35 C         133.3633  141.2409  155.1001 C.3     1  UNL1        0.0899
     36 C         131.9240  141.3416  155.5099 C.3     1  UNL1        0.0897
@<TRIPOS>BOND
     1    30    31    1
     2    31    32    1
     3    32    33    1
     4    33    34    1
     5    34    29    1
     6    29     1    1
     7     1     2   ar
     8     2     3   ar
     9     3     4   ar
    10     4     5   ar
    11     5     6   ar
    12     5     7    1
    13     7     8    1
    14     8     9    2
    15     9    13    1
    16    13    14   ar
    17    14    15   ar
    18    15    16   ar
    19    16    18    1
    20    18    19    3
    21    19    20    1
    22    20    21    1
    23    21    22    1
    24    22    23   ar
    25    23    24   ar
    26    24    25   ar
    27    25    26   ar
    28    26    27    1
    29    26    28   ar
    30    16    17   ar
    31     9    10    1
    32    10    11    2
    33    11    12    1
    34    34    35    1
    35    35    36    1
    36    36    31    1
    37     6     1   ar
    38    12     8    1
    39    12     4    1
    40    17    13   ar
    41    28    22   ar
@<TRIPOS>MOLECULE
*****
 36 41 0 0 0
SMALL
GASTEIGER

@<TRIPOS>ATOM
      1 C         142.5039  136.4456  156.0252 C.ar    1  UNL1       -0.0065
      2 C         143.4725  137.1275  155.1050 C.ar    1  UNL1       -0.0032
      3 C         143.9697  138.5055  155.4271 C.ar    1  UNL1       -0.0026
      4 C         143.4983  139.2017  156.6693 C.ar    1  UNL1        0.0019
      5 C         142.5297  138.5198  157.5895 C.ar    1  UNL1       -0.0200
      6 C         142.0325  137.1418  157.2674 C.ar    1  UNL1       -0.0071
      7 C         142.2446  139.4480  158.7327 C.3     1  UNL1        0.0519
      8 C         143.0370  140.7036  158.5191 C.2     1  UNL1        0.0074
      9 C         143.3504  142.0533  159.0937 C.2     1  UNL1        0.0976
     10 N         144.3190  142.7352  158.1735 N.2     1  UNL1       -0.1526
     11 N         144.6042  141.8069  157.0303 N.2     1  UNL1       -0.1678
     12 C         143.8118  140.5514  157.2439 C.3     1  UNL1        0.1672
     13 C         142.7931  142.6213  160.3653 C.ar    1  UNL1        0.0265
     14 C         142.0722  143.9293  160.5051 C.ar    1  UNL1        0.0376
     15 S         141.6924  144.0974  161.9465 S.2     1  UNL1       -0.0780
     16 C         142.1787  142.8934  162.6974 C.ar    1  UNL1        0.0711
     17 C         142.8589  141.9811  161.7202 C.ar    1  UNL1        0.0168
     18 C         142.0136  142.6452  164.1675 C.1     1  UNL1       -0.0543
     19 C         141.8486  142.3970  165.6376 C.1     1  UNL1       -0.0388
     20 C         141.6835  142.1488  167.1077 C.3     1  UNL1        0.2814
     21 O         141.4122  140.7611  167.6082 O.3     1  UNL1       -0.4612
     22 C         140.5981  139.8111  166.7806 C.ar    1  UNL1        0.1409
     23 C         139.1094  139.7512  166.9543 C.ar    1  UNL1        0.0370
     24 C         138.2953  138.8013  166.1267 C.ar    1  UNL1        0.0040
     25 C         138.9700  137.9113  165.1254 C.ar    1  UNL1        0.0116
     26 C         140.4587  137.9712  164.9517 C.ar    1  UNL1        0.0607
     27 CL        141.1333  137.0811  163.9503 Cl      1  UNL1       -0.0821
     28 C         141.2727  138.9211  165.7793 C.ar    1  UNL1        0.0483
     29 C         142.0067  135.0675  155.7032 C.3     1  UNL1        0.0992
     30 C         144.7178  130.2695  158.0756 C.3     1  UNL1        0.0897
     31 N         144.0401  131.4690  157.4825 N.3     1  UNL1       -0.2691
     32 C         142.8453  131.2919  156.5930 C.3     1  UNL1        0.0897
     33 C         142.1675  132.4914  155.9998 C.3     1  UNL1        0.0899
     34 N         142.6844  133.8680  156.2963 N.3     1  UNL1       -0.2665
     35 C         143.8792  134.0450  157.1858 C.3     1  UNL1        0.0899
     36 C         144.5570  132.8455  157.7789 C.3     1  UNL1        0.0897
@<TRIPOS>BOND
     1    30    31    1
     2    31    32    1
     3    32    33    1
     4    33    34    1
     5    34    29    1
     6    29     1    1
     7     1     2   ar
     8     2     3   ar
     9     3     4   ar
    10     4     5   ar
    11     5     6   ar
    12     5     7    1
    13     7     8    1
    14     8     9    2
    15     9    13    1
    16    13    14   ar
    17    14    15   ar
    18    15    16   ar
    19    16    18    1
    20    18    19    3
    21    19    20    1
    22    20    21    1
    23    21    22    1
    24    22    23   ar
    25    23    24   ar
    26    24    25   ar
    27    25    26   ar
    28    26    27    1
    29    26    28   ar
    30    16    17   ar
    31     9    10    1
    32    10    11    2
    33    11    12    1
    34    34    35    1
    35    35    36    1
    36    36    31    1
    37     6     1   ar
    38    12     8    1
    39    12     4    1
    40    17    13   ar
    41    28    22   ar
@<TRIPOS>MOLECULE
*****
 36 41 0 0 0
SMALL
GASTEIGER

@<TRIPOS>ATOM
      1 C         143.1643  131.4410  155.8117 C.ar    1  UNL1       -0.0065
      2 C         141.9807  131.6898  154.9245 C.ar    1  UNL1       -0.0032
      3 C         141.3571  133.0530  154.8708 C.ar    1  UNL1       -0.0026
      4 C         141.9172  134.1673  155.7041 C.ar    1  UNL1        0.0019
      5 C         143.1008  133.9185  156.5913 C.ar    1  UNL1       -0.0200
      6 C         143.7244  132.5553  156.6451 C.ar    1  UNL1       -0.0071
      7 C         143.4317  135.2020  157.2935 C.3     1  UNL1        0.0519
      8 C         142.4526  136.2441  156.8403 C.2     1  UNL1        0.0074
      9 C         142.0520  137.6814  156.9943 C.2     1  UNL1        0.0976
     10 N         140.8684  137.9302  156.1071 N.2     1  UNL1       -0.1526
     11 N         140.5375  136.6467  155.4049 N.2     1  UNL1       -0.1678
     12 C         141.5166  135.6047  155.8580 C.3     1  UNL1        0.1672
     13 C         142.7181  138.6924  157.8799 C.ar    1  UNL1        0.0265
     14 C         143.2592  140.0229  157.4474 C.ar    1  UNL1        0.0376
     15 S         143.8356  140.7031  158.6537 S.2     1  UNL1       -0.0780
     16 C         143.6507  139.7930  159.8316 C.ar    1  UNL1        0.0711
     17 C         142.9601  138.5503  159.3534 C.ar    1  UNL1        0.0168
     18 C         144.0809  140.0759  161.2405 C.1     1  UNL1       -0.0543
     19 C         144.5111  140.3588  162.6494 C.1     1  UNL1       -0.0388
     20 C         144.9413  140.6417  164.0582 C.3     1  UNL1        0.2814
     21 O         144.0026  141.3284  165.0055 O.3     1  UNL1       -0.4612
     22 C         143.3619  142.6277  164.6163 C.ar    1  UNL1        0.1409
     23 C         144.2151  143.7927  164.2102 C.ar    1  UNL1        0.0370
     24 C         143.5745  145.0919  163.8210 C.ar    1  UNL1        0.0040
     25 C         142.0806  145.2262  163.8379 C.ar    1  UNL1        0.0116
     26 C         141.2274  144.0612  164.2439 C.ar    1  UNL1        0.0607
     27 CL        139.7335  144.1956  164.2608 Cl      1  UNL1       -0.0821
     28 C         141.8681  142.7620  164.6331 C.ar    1  UNL1        0.0483
     29 C         143.7878  130.0777  155.8655 C.3     1  UNL1        0.0992
     30 C         142.8164  126.5191  160.5975 C.3     1  UNL1        0.0897
     31 N         143.0593  127.4087  159.4145 N.3     1  UNL1       -0.2691
     32 C         144.0123  128.5616  159.5263 C.3     1  UNL1        0.0897
     33 C         144.2552  129.4513  158.3433 C.3     1  UNL1        0.0899
     34 N         143.5450  129.1881  157.0485 N.3     1  UNL1       -0.2665
     35 C         142.5919  128.0351  156.9368 C.3     1  UNL1        0.0899
     36 C         142.3491  127.1455  158.1198 C.3     1  UNL1        0.0897
@<TRIPOS>BOND
     1    30    31    1
     2    31    32    1
     3    32    33    1
     4    33    34    1
     5    34    29    1
     6    29     1    1
     7     1     2   ar
     8     2     3   ar
     9     3     4   ar
    10     4     5   ar
    11     5     6   ar
    12     5     7    1
    13     7     8    1
    14     8     9    2
    15     9    13    1
    16    13    14   ar
    17    14    15   ar
    18    15    16   ar
    19    16    18    1
    20    18    19    3
    21    19    20    1
    22    20    21    1
    23    21    22    1
    24    22    23   ar
    25    23    24   ar
    26    24    25   ar
    27    25    26   ar
    28    26    27    1
    29    26    28   ar
    30    16    17   ar
    31     9    10    1
    32    10    11    2
    33    11    12    1
    34    34    35    1
    35    35    36    1
    36    36    31    1
    37     6     1   ar
    38    12     8    1
    39    12     4    1
    40    17    13   ar
    41    28    22   ar
@<TRIPOS>MOLECULE
*****
 36 41 0 0 0
SMALL
GASTEIGER

@<TRIPOS>ATOM
      1 C         143.0651  131.0774  155.6423 C.ar    1  UNL1       -0.0065
      2 C         142.0173  131.4254  154.6270 C.ar    1  UNL1       -0.0032
      3 C         141.4595  132.8167  154.5716 C.ar    1  UNL1       -0.0026
      4 C         141.9496  133.8600  155.5315 C.ar    1  UNL1        0.0019
      5 C         142.9974  133.5120  156.5468 C.ar    1  UNL1       -0.0200
      6 C         143.5551  132.1207  156.6022 C.ar    1  UNL1       -0.0071
      7 C         143.2839  134.7413  157.3571 C.3     1  UNL1        0.0519
      8 C         142.4132  135.8491  156.8426 C.2     1  UNL1        0.0074
      9 C         142.0523  137.2934  157.0255 C.2     1  UNL1        0.0976
     10 N         141.0045  137.6415  156.0102 N.2     1  UNL1       -0.1526
     11 N         140.7179  136.4122  155.1998 N.2     1  UNL1       -0.1678
     12 C         141.5885  135.3044  155.7143 C.3     1  UNL1        0.1672
     13 C         142.6365  138.2261  158.0448 C.ar    1  UNL1        0.0265
     14 C         143.0470  139.6488  157.8052 C.ar    1  UNL1        0.0376
     15 S         143.5771  140.2017  159.0949 S.2     1  UNL1       -0.0780
     16 C         143.4941  139.1207  160.1316 C.ar    1  UNL1        0.0711
     17 C         142.9129  137.8997  159.4825 C.ar    1  UNL1        0.0168
     18 C         143.9181  139.2398  161.5654 C.1     1  UNL1       -0.0543
     19 C         144.3420  139.3588  162.9994 C.1     1  UNL1       -0.0388
     20 C         144.7659  139.4779  164.4333 C.3     1  UNL1        0.2814
     21 O         144.0434  138.7039  165.4958 O.3     1  UNL1       -0.4612
     22 C         142.5438  138.6698  165.5100 C.ar    1  UNL1        0.1409
     23 C         141.8088  137.6568  164.6832 C.ar    1  UNL1        0.0370
     24 C         140.3092  137.6227  164.6974 C.ar    1  UNL1        0.0040
     25 C         139.5448  138.6015  165.5384 C.ar    1  UNL1        0.0116
     26 C         140.2798  139.6146  166.3652 C.ar    1  UNL1        0.0607
     27 CL        139.5152  140.5935  167.2062 Cl      1  UNL1       -0.0821
     28 C         141.7793  139.6487  166.3510 C.ar    1  UNL1        0.0483
     29 C         143.6229  129.6860  155.6978 C.3     1  UNL1        0.0992
     30 C         142.9565  126.3824  160.6618 C.3     1  UNL1        0.0897
     31 N         143.1231  127.2083  159.4208 N.3     1  UNL1       -0.2691
     32 C         144.2555  128.1865  159.3174 C.3     1  UNL1        0.0897
     33 C         144.4221  129.0124  158.0763 C.3     1  UNL1        0.0899
     34 N         143.4563  128.8601  156.9388 N.3     1  UNL1       -0.2665
     35 C         142.3239  127.8819  157.0423 C.3     1  UNL1        0.0899
     36 C         142.1573  127.0560  158.2833 C.3     1  UNL1        0.0897
@<TRIPOS>BOND
     1    30    31    1
     2    31    32    1
     3    32    33    1
     4    33    34    1
     5    34    29    1
     6    29     1    1
     7     1     2   ar
     8     2     3   ar
     9     3     4   ar
    10     4     5   ar
    11     5     6   ar
    12     5     7    1
    13     7     8    1
    14     8     9    2
    15     9    13    1
    16    13    14   ar
    17    14    15   ar
    18    15    16   ar
    19    16    18    1
    20    18    19    3
    21    19    20    1
    22    20    21    1
    23    21    22    1
    24    22    23   ar
    25    23    24   ar
    26    24    25   ar
    27    25    26   ar
    28    26    27    1
    29    26    28   ar
    30    16    17   ar
    31     9    10    1
    32    10    11    2
    33    11    12    1
    34    34    35    1
    35    35    36    1
    36    36    31    1
    37     6     1   ar
    38    12     8    1
    39    12     4    1
    40    17    13   ar
    41    28    22   ar
@<TRIPOS>MOLECULE
*****
 36 41 0 0 0
SMALL
GASTEIGER

@<TRIPOS>ATOM
      1 C         142.8138  137.7158  155.7804 C.ar    1  UNL1       -0.0065
      2 C         143.9181  138.6473  155.3771 C.ar    1  UNL1       -0.0032
      3 C         144.2518  139.8311  156.2357 C.ar    1  UNL1       -0.0026
      4 C         143.4812  140.0832  157.4977 C.ar    1  UNL1        0.0019
      5 C         142.3769  139.1517  157.9011 C.ar    1  UNL1       -0.0200
      6 C         142.0433  137.9679  157.0424 C.ar    1  UNL1       -0.0071
      7 C         141.7958  139.6523  159.1901 C.3     1  UNL1        0.0519
      8 C         142.5410  140.8933  159.5835 C.2     1  UNL1        0.0074
      9 C         142.6423  141.9696  160.6233 C.2     1  UNL1        0.0976
     10 N         143.7466  142.9012  160.2200 N.2     1  UNL1       -0.1526
     11 N         144.3276  142.4006  158.9309 N.2     1  UNL1       -0.1678
     12 C         143.5826  141.1597  158.5376 C.3     1  UNL1        0.1672
     13 C         141.7892  142.0927  161.8509 C.ar    1  UNL1        0.0265
     14 C         141.2234  143.3656  162.4074 C.ar    1  UNL1        0.0376
     15 S         140.4366  143.0241  163.6380 S.2     1  UNL1       -0.0780
     16 C         140.5161  141.5402  163.8420 C.ar    1  UNL1        0.0711
     17 C         141.3520  140.9646  162.7376 C.ar    1  UNL1        0.0168
     18 C         139.8727  140.7675  164.9551 C.1     1  UNL1       -0.0543
     19 C         139.2291  139.9949  166.0683 C.1     1  UNL1       -0.0388
     20 C         138.5857  139.2223  167.1813 C.3     1  UNL1        0.2814
     21 O         138.9011  139.5595  168.6085 O.3     1  UNL1       -0.4612
     22 C         140.0854  140.4217  168.9313 C.ar    1  UNL1        0.1409
     23 C         141.4711  139.8527  168.8524 C.ar    1  UNL1        0.0370
     24 C         142.6554  140.7148  169.1751 C.ar    1  UNL1        0.0040
     25 C         142.4540  142.1459  169.5768 C.ar    1  UNL1        0.0116
     26 C         141.0684  142.7149  169.6557 C.ar    1  UNL1        0.0607
     27 CL        140.8670  144.1461  170.0574 Cl      1  UNL1       -0.0821
     28 C         139.8841  141.8528  169.3329 C.ar    1  UNL1        0.0483
     29 C         142.4801  136.5319  154.9217 C.3     1  UNL1        0.0992
     30 C         143.1140  130.9754  157.0949 C.3     1  UNL1        0.0897
     31 N         142.9555  132.3645  156.5516 N.3     1  UNL1       -0.2691
     32 C         143.9454  133.4304  156.9177 C.3     1  UNL1        0.0897
     33 C         143.7869  134.8196  156.3744 C.3     1  UNL1        0.0899
     34 N         142.6386  135.1428  155.4650 N.3     1  UNL1       -0.2665
     35 C         141.6487  134.0768  155.0990 C.3     1  UNL1        0.0899
     36 C         141.8072  132.6877  155.6423 C.3     1  UNL1        0.0897
@<TRIPOS>BOND
     1    30    31    1
     2    31    32    1
     3    32    33    1
     4    33    34    1
     5    34    29    1
     6    29     1    1
     7     1     2   ar
     8     2     3   ar
     9     3     4   ar
    10     4     5   ar
    11     5     6   ar
    12     5     7    1
    13     7     8    1
    14     8     9    2
    15     9    13    1
    16    13    14   ar
    17    14    15   ar
    18    15    16   ar
    19    16    18    1
    20    18    19    3
    21    19    20    1
    22    20    21    1
    23    21    22    1
    24    22    23   ar
    25    23    24   ar
    26    24    25   ar
    27    25    26   ar
    28    26    27    1
    29    26    28   ar
    30    16    17   ar
    31     9    10    1
    32    10    11    2
    33    11    12    1
    34    34    35    1
    35    35    36    1
    36    36    31    1
    37     6     1   ar
    38    12     8    1
    39    12     4    1
    40    17    13   ar
    41    28    22   ar
