@<TRIPOS>MOLECULE
*****
 22 24 0 0 0
SMALL
GASTEIGER

@<TRIPOS>ATOM
      1 N         139.0763  143.7872  162.9002 N.am    1  UNL1       -0.2606
      2 C         138.1091  143.2515  161.8865 C.3     1  UNL1        0.1169
      3 C         137.8526  141.8089  162.2076 C.3     1  UNL1        0.1212
      4 N         138.6612  141.4530  163.4198 N.am    1  UNL1       -0.2413
      5 C         139.4176  142.6756  163.8479 C.2     1  UNL1        0.3111
      6 O         140.3511  142.7701  165.0180 O.2     1  UNL1       -0.2520
      7 C         138.7058  140.1102  164.0869 C.ar    1  UNL1        0.0562
      8 C         139.3984  138.9617  163.4152 C.ar    1  UNL1        0.0150
      9 C         139.4429  137.6189  164.0822 C.ar    1  UNL1        0.0021
     10 C         138.7950  137.4247  165.4210 C.ar    1  UNL1        0.0115
     11 C         138.1024  138.5733  166.0927 C.ar    1  UNL1        0.0589
     12 CL        137.4544  138.3790  167.4316 Cl      1  UNL1       -0.0822
     13 C         138.0578  139.9160  165.4257 C.ar    1  UNL1        0.0263
     14 C         139.6087  145.1884  162.9563 C.3     1  UNL1        0.1123
     15 C         140.9547  145.5031  162.3739 C.3     1  UNL1        0.0939
     16 C         145.6451  141.9583  163.5713 C.3     1  UNL1        0.0001
     17 C         144.4725  142.8445  163.2720 C.3     1  UNL1        0.0028
     18 C         143.6505  142.6099  162.0395 C.3     1  UNL1        0.0174
     19 C         142.4779  143.4961  161.7401 C.3     1  UNL1        0.0721
     20 N         142.1273  144.6169  162.6733 N.3     1  UNL1       -0.2712
     21 C         142.9494  144.8515  163.9058 C.3     1  UNL1        0.0721
     22 C         144.1220  143.9653  164.2051 C.3     1  UNL1        0.0174
@<TRIPOS>BOND
     1    16    17    1
     2    17    18    1
     3    18    19    1
     4    19    20    1
     5    20    15    1
     6    15    14    1
     7    14     1    1
     8     1     2    1
     9     2     3    1
    10     3     4    1
    11     4     7    1
    12     7     8   ar
    13     8     9   ar
    14     9    10   ar
    15    10    11   ar
    16    11    12    1
    17    11    13   ar
    18     4     5   am
    19     5     6    2
    20    20    21    1
    21    21    22    1
    22    22    17    1
    23     5     1   am
    24    13     7   ar
@<TRIPOS>MOLECULE
*****
 22 24 0 0 0
SMALL
GASTEIGER

@<TRIPOS>ATOM
      1 N         139.1692  138.6814  165.1852 N.am    1  UNL1       -0.2606
      2 C         138.1384  138.5622  166.2683 C.3     1  UNL1        0.1169
      3 C         138.6232  139.3381  167.4570 C.3     1  UNL1        0.1212
      4 N         139.9536  139.9368  167.1085 N.am    1  UNL1       -0.2413
      5 C         140.2911  139.5309  165.7044 C.2     1  UNL1        0.3111
      6 O         141.5324  139.9083  164.9518 O.2     1  UNL1       -0.2520
      7 C         140.7984  140.7913  168.0064 C.ar    1  UNL1        0.0562
      8 C         142.1889  140.3572  168.3643 C.ar    1  UNL1        0.0150
      9 C         143.0336  141.2117  169.2622 C.ar    1  UNL1        0.0021
     10 C         142.4878  142.5004  169.8022 C.ar    1  UNL1        0.0115
     11 C         141.0973  142.9345  169.4442 C.ar    1  UNL1        0.0589
     12 CL        140.5515  144.2232  169.9842 Cl      1  UNL1       -0.0822
     13 C         140.2526  142.0799  168.5463 C.ar    1  UNL1        0.0263
     14 C         139.0917  138.0601  163.8221 C.3     1  UNL1        0.1123
     15 C         138.5244  138.8403  162.6734 C.3     1  UNL1        0.0939
     16 C         138.8150  144.8332  162.6828 C.3     1  UNL1        0.0001
     17 C         138.7424  143.3350  162.6804 C.3     1  UNL1        0.0028
     18 C         137.5274  142.6422  163.2224 C.3     1  UNL1        0.0174
     19 C         137.4547  141.1439  163.2200 C.3     1  UNL1        0.0721
     20 N         138.5971  140.3385  162.6757 N.3     1  UNL1       -0.2712
     21 C         139.8121  141.0313  162.1338 C.3     1  UNL1        0.0721
     22 C         139.8847  142.5296  162.1362 C.3     1  UNL1        0.0174
@<TRIPOS>BOND
     1    16    17    1
     2    17    18    1
     3    18    19    1
     4    19    20    1
     5    20    15    1
     6    15    14    1
     7    14     1    1
     8     1     2    1
     9     2     3    1
    10     3     4    1
    11     4     7    1
    12     7     8   ar
    13     8     9   ar
    14     9    10   ar
    15    10    11   ar
    16    11    12    1
    17    11    13   ar
    18     4     5   am
    19     5     6    2
    20    20    21    1
    21    21    22    1
    22    22    17    1
    23     5     1   am
    24    13     7   ar
@<TRIPOS>MOLECULE
*****
 22 24 0 0 0
SMALL
GASTEIGER

@<TRIPOS>ATOM
      1 N         141.6592  139.0846  164.4783 N.am    1  UNL1       -0.2606
      2 C         140.2971  139.4664  163.9793 C.3     1  UNL1        0.1169
      3 C         139.5544  140.1154  165.1094 C.3     1  UNL1        0.1212
      4 N         140.4575  140.1347  166.3070 N.am    1  UNL1       -0.2413
      5 C         141.7583  139.4976  165.9170 C.2     1  UNL1        0.3111
      6 O         142.9491  139.3071  166.8089 O.2     1  UNL1       -0.2520
      7 C         140.1192  140.6930  167.6575 C.ar    1  UNL1        0.0562
      8 C         139.2776  139.8957  168.6093 C.ar    1  UNL1        0.0150
      9 C         138.9393  140.4540  169.9598 C.ar    1  UNL1        0.0021
     10 C         139.4426  141.8096  170.3585 C.ar    1  UNL1        0.0115
     11 C         140.2842  142.6069  169.4066 C.ar    1  UNL1        0.0589
     12 CL        140.7875  143.9626  169.8053 Cl      1  UNL1       -0.0822
     13 C         140.6225  142.0486  168.0561 C.ar    1  UNL1        0.0263
     14 C         142.7335  138.4085  163.6791 C.3     1  UNL1        0.1123
     15 C         143.8440  139.2187  163.0789 C.3     1  UNL1        0.0939
     16 C         143.8130  145.1965  163.5931 C.3     1  UNL1        0.0001
     17 C         143.8207  143.7021  163.4645 C.3     1  UNL1        0.0028
     18 C         143.0539  143.0405  162.3581 C.3     1  UNL1        0.0174
     19 C         143.0616  141.5460  162.2296 C.3     1  UNL1        0.0721
     20 N         143.8362  140.7131  163.2074 N.3     1  UNL1       -0.2712
     21 C         144.6031  141.3747  164.3138 C.3     1  UNL1        0.0721
     22 C         144.5953  142.8692  164.4424 C.3     1  UNL1        0.0174
@<TRIPOS>BOND
     1    16    17    1
     2    17    18    1
     3    18    19    1
     4    19    20    1
     5    20    15    1
     6    15    14    1
     7    14     1    1
     8     1     2    1
     9     2     3    1
    10     3     4    1
    11     4     7    1
    12     7     8   ar
    13     8     9   ar
    14     9    10   ar
    15    10    11   ar
    16    11    12    1
    17    11    13   ar
    18     4     5   am
    19     5     6    2
    20    20    21    1
    21    21    22    1
    22    22    17    1
    23     5     1   am
    24    13     7   ar
@<TRIPOS>MOLECULE
*****
 22 24 0 0 0
SMALL
GASTEIGER

@<TRIPOS>ATOM
      1 N         138.1709  141.2153  163.8696 N.am    1  UNL1       -0.2606
      2 C         138.0937  139.7297  163.6774 C.3     1  UNL1        0.1169
      3 C         138.9054  139.0795  164.7583 C.3     1  UNL1        0.1212
      4 N         139.4844  140.1634  165.6185 N.am    1  UNL1       -0.2413
      5 C         139.0305  141.4834  165.0693 C.2     1  UNL1        0.3111
      6 O         139.3755  142.8342  165.6226 O.2     1  UNL1       -0.2520
      7 C         140.3631  139.9626  166.8175 C.ar    1  UNL1        0.0562
      8 C         141.8152  139.6330  166.6365 C.ar    1  UNL1        0.0150
      9 C         142.6939  139.4322  167.8355 C.ar    1  UNL1        0.0021
     10 C         142.1204  139.5610  169.2155 C.ar    1  UNL1        0.0115
     11 C         140.6683  139.8905  169.3966 C.ar    1  UNL1        0.0589
     12 CL        140.0948  140.0193  170.7767 Cl      1  UNL1       -0.0822
     13 C         139.7896  140.0913  168.1976 C.ar    1  UNL1        0.0263
     14 C         137.5055  142.2510  163.0125 C.3     1  UNL1        0.1123
     15 C         138.2939  142.9732  161.9605 C.3     1  UNL1        0.0939
     16 C         143.7942  145.0191  163.2095 C.3     1  UNL1        0.0001
     17 C         142.4192  144.5076  162.8972 C.3     1  UNL1        0.0028
     18 C         141.2206  145.3707  163.1590 C.3     1  UNL1        0.0174
     19 C         139.8455  144.8592  162.8467 C.3     1  UNL1        0.0721
     20 N         139.6690  143.4847  162.2728 N.3     1  UNL1       -0.2712
     21 C         140.8675  142.6216  162.0110 C.3     1  UNL1        0.0721
     22 C         142.2426  143.1331  162.3233 C.3     1  UNL1        0.0174
@<TRIPOS>BOND
     1    16    17    1
     2    17    18    1
     3    18    19    1
     4    19    20    1
     5    20    15    1
     6    15    14    1
     7    14     1    1
     8     1     2    1
     9     2     3    1
    10     3     4    1
    11     4     7    1
    12     7     8   ar
    13     8     9   ar
    14     9    10   ar
    15    10    11   ar
    16    11    12    1
    17    11    13   ar
    18     4     5   am
    19     5     6    2
    20    20    21    1
    21    21    22    1
    22    22    17    1
    23     5     1   am
    24    13     7   ar
@<TRIPOS>MOLECULE
*****
 22 24 0 0 0
SMALL
GASTEIGER

@<TRIPOS>ATOM
      1 N         144.2132  142.6503  163.2032 N.am    1  UNL1       -0.2606
      2 C         144.0276  143.1328  161.7951 C.3     1  UNL1        0.1169
      3 C         142.5961  143.5509  161.6332 C.3     1  UNL1        0.1212
      4 N         141.8971  143.3268  162.9413 N.am    1  UNL1       -0.2413
      5 C         142.8965  142.7702  163.9116 C.2     1  UNL1        0.3111
      6 O         142.6266  142.3987  165.3395 O.2     1  UNL1       -0.2520
      7 C         140.4523  143.6096  163.2287 C.ar    1  UNL1        0.0562
      8 C         139.3968  143.1924  162.2480 C.ar    1  UNL1        0.0150
      9 C         137.9521  143.4752  162.5354 C.ar    1  UNL1        0.0021
     10 C         137.5628  144.1753  163.8036 C.ar    1  UNL1        0.0115
     11 C         138.6182  144.5925  164.7844 C.ar    1  UNL1        0.0589
     12 CL        138.2289  145.2926  166.0526 Cl      1  UNL1       -0.0822
     13 C         140.0630  144.3097  164.4969 C.ar    1  UNL1        0.0263
     14 C         145.4912  142.1378  163.7983 C.3     1  UNL1        0.1123
     15 C         145.6755  140.6668  164.0261 C.3     1  UNL1        0.0939
     16 C         140.9460  136.9812  163.8070 C.3     1  UNL1        0.0001
     17 C         142.1284  137.9026  163.8618 C.3     1  UNL1        0.0028
     18 C         142.6487  138.3772  165.1862 C.3     1  UNL1        0.0174
     19 C         143.8311  139.2985  165.2410 C.3     1  UNL1        0.0721
     20 N         144.4931  139.7454  163.9714 N.3     1  UNL1       -0.2712
     21 C         143.9728  139.2708  162.6470 C.3     1  UNL1        0.0721
     22 C         142.7905  138.3494  162.5922 C.3     1  UNL1        0.0174
@<TRIPOS>BOND
     1    16    17    1
     2    17    18    1
     3    18    19    1
     4    19    20    1
     5    20    15    1
     6    15    14    1
     7    14     1    1
     8     1     2    1
     9     2     3    1
    10     3     4    1
    11     4     7    1
    12     7     8   ar
    13     8     9   ar
    14     9    10   ar
    15    10    11   ar
    16    11    12    1
    17    11    13   ar
    18     4     5   am
    19     5     6    2
    20    20    21    1
    21    21    22    1
    22    22    17    1
    23     5     1   am
    24    13     7   ar
@<TRIPOS>MOLECULE
*****
 22 24 0 0 0
SMALL
GASTEIGER

@<TRIPOS>ATOM
      1 N         144.5984  140.7116  164.3647 N.am    1  UNL1       -0.2606
      2 C         144.4565  139.2305  164.1745 C.3     1  UNL1        0.1169
      3 C         143.3087  138.7624  165.0192 C.3     1  UNL1        0.1212
      4 N         142.7412  139.9543  165.7315 N.am    1  UNL1       -0.2413
      5 C         143.5382  141.1590  165.3270 C.2     1  UNL1        0.3111
      6 O         143.3145  142.5642  165.8014 O.2     1  UNL1       -0.2520
      7 C         141.5804  139.9435  166.6814 C.ar    1  UNL1        0.0562
      8 C         141.7549  140.4442  168.0846 C.ar    1  UNL1        0.0150
      9 C         140.5942  140.4335  169.0346 C.ar    1  UNL1        0.0021
     10 C         139.2589  139.9220  168.5814 C.ar    1  UNL1        0.0115
     11 C         139.0844  139.4213  167.1782 C.ar    1  UNL1        0.0589
     12 CL        137.7490  138.9098  166.7250 Cl      1  UNL1       -0.0822
     13 C         140.2452  139.4321  166.2282 C.ar    1  UNL1        0.0263
     14 C         145.6209  141.5909  163.7079 C.3     1  UNL1        0.1123
     15 C         145.2362  142.4398  162.5327 C.3     1  UNL1        0.0939
     16 C         140.0528  145.4614  162.5831 C.3     1  UNL1        0.0001
     17 C         141.3486  144.7060  162.5705 C.3     1  UNL1        0.0028
     18 C         142.5678  145.2975  163.2136 C.3     1  UNL1        0.0174
     19 C         143.8637  144.5421  163.2010 C.3     1  UNL1        0.0721
     20 N         143.9403  143.1952  162.5453 N.3     1  UNL1       -0.2712
     21 C         142.7211  142.6038  161.9022 C.3     1  UNL1        0.0721
     22 C         141.4253  143.3592  161.9148 C.3     1  UNL1        0.0174
@<TRIPOS>BOND
     1    16    17    1
     2    17    18    1
     3    18    19    1
     4    19    20    1
     5    20    15    1
     6    15    14    1
     7    14     1    1
     8     1     2    1
     9     2     3    1
    10     3     4    1
    11     4     7    1
    12     7     8   ar
    13     8     9   ar
    14     9    10   ar
    15    10    11   ar
    16    11    12    1
    17    11    13   ar
    18     4     5   am
    19     5     6    2
    20    20    21    1
    21    21    22    1
    22    22    17    1
    23     5     1   am
    24    13     7   ar
@<TRIPOS>MOLECULE
*****
 22 24 0 0 0
SMALL
GASTEIGER

@<TRIPOS>ATOM
      1 N         144.5942  140.7919  164.3484 N.am    1  UNL1       -0.2606
      2 C         144.3280  139.3282  164.1570 C.3     1  UNL1        0.1169
      3 C         143.3055  138.9066  165.1703 C.3     1  UNL1        0.1212
      4 N         142.9398  140.1098  165.9880 N.am    1  UNL1       -0.2413
      5 C         143.7363  141.2750  165.4801 C.2     1  UNL1        0.3111
      6 O         143.6839  142.6770  166.0106 O.2     1  UNL1       -0.2520
      7 C         141.9512  140.1421  167.1157 C.ar    1  UNL1        0.0562
      8 C         140.4950  139.9068  166.8435 C.ar    1  UNL1        0.0150
      9 C         139.5064  139.9392  167.9711 C.ar    1  UNL1        0.0021
     10 C         139.9740  140.2068  169.3710 C.ar    1  UNL1        0.0115
     11 C         141.4303  140.4421  169.6432 C.ar    1  UNL1        0.0589
     12 CL        141.8979  140.7098  171.0432 Cl      1  UNL1       -0.0822
     13 C         142.4189  140.4098  168.5155 C.ar    1  UNL1        0.0263
     14 C         145.5505  141.6261  163.5486 C.3     1  UNL1        0.1123
     15 C         145.0417  142.4837  162.4281 C.3     1  UNL1        0.0939
     16 C         139.7594  145.2808  162.9515 C.3     1  UNL1        0.0001
     17 C         141.0800  144.5815  162.8206 C.3     1  UNL1        0.0028
     18 C         141.1507  143.2254  162.1836 C.3     1  UNL1        0.0174
     19 C         142.4712  142.5261  162.0527 C.3     1  UNL1        0.0721
     20 N         143.7211  143.1829  162.5589 N.3     1  UNL1       -0.2712
     21 C         143.6504  144.5391  163.1960 C.3     1  UNL1        0.0721
     22 C         142.3299  145.2383  163.3269 C.3     1  UNL1        0.0174
@<TRIPOS>BOND
     1    16    17    1
     2    17    18    1
     3    18    19    1
     4    19    20    1
     5    20    15    1
     6    15    14    1
     7    14     1    1
     8     1     2    1
     9     2     3    1
    10     3     4    1
    11     4     7    1
    12     7     8   ar
    13     8     9   ar
    14     9    10   ar
    15    10    11   ar
    16    11    12    1
    17    11    13   ar
    18     4     5   am
    19     5     6    2
    20    20    21    1
    21    21    22    1
    22    22    17    1
    23     5     1   am
    24    13     7   ar
@<TRIPOS>MOLECULE
*****
 22 24 0 0 0
SMALL
GASTEIGER

@<TRIPOS>ATOM
      1 N         143.4063  140.3179  164.2831 N.am    1  UNL1       -0.2606
      2 C         142.9462  141.6814  163.8599 C.3     1  UNL1        0.1169
      3 C         142.0645  142.2299  164.9424 C.3     1  UNL1        0.1212
      4 N         141.9796  141.2052  166.0347 N.am    1  UNL1       -0.2413
      5 C         142.8089  140.0235  165.6272 C.2     1  UNL1        0.3111
      6 O         143.0061  138.7681  166.4239 O.2     1  UNL1       -0.2520
      7 C         141.2020  141.3388  167.3104 C.ar    1  UNL1        0.0562
      8 C         140.4322  140.1679  167.8456 C.ar    1  UNL1        0.0150
      9 C         139.6546  140.3015  169.1213 C.ar    1  UNL1        0.0021
     10 C         139.6468  141.6059  169.8618 C.ar    1  UNL1        0.0115
     11 C         140.4166  142.7768  169.3266 C.ar    1  UNL1        0.0589
     12 CL        140.4088  144.0813  170.0672 Cl      1  UNL1       -0.0822
     13 C         141.1942  142.6432  168.0509 C.ar    1  UNL1        0.0263
     14 C         144.3058  139.4084  163.4998 C.3     1  UNL1        0.1123
     15 C         143.7169  138.3974  162.5612 C.3     1  UNL1        0.0939
     16 C         137.7829  138.2084  161.6936 C.3     1  UNL1        0.0001
     17 C         139.2664  138.2557  161.9105 C.3     1  UNL1        0.0028
     18 C         140.1302  139.0861  161.0082 C.3     1  UNL1        0.0174
     19 C         141.6137  139.1333  161.2251 C.3     1  UNL1        0.0721
     20 N         142.2334  138.3501  162.3443 N.3     1  UNL1       -0.2712
     21 C         141.3695  137.5197  163.2466 C.3     1  UNL1        0.0721
     22 C         139.8861  137.4725  163.0297 C.3     1  UNL1        0.0174
@<TRIPOS>BOND
     1    16    17    1
     2    17    18    1
     3    18    19    1
     4    19    20    1
     5    20    15    1
     6    15    14    1
     7    14     1    1
     8     1     2    1
     9     2     3    1
    10     3     4    1
    11     4     7    1
    12     7     8   ar
    13     8     9   ar
    14     9    10   ar
    15    10    11   ar
    16    11    12    1
    17    11    13   ar
    18     4     5   am
    19     5     6    2
    20    20    21    1
    21    21    22    1
    22    22    17    1
    23     5     1   am
    24    13     7   ar
@<TRIPOS>MOLECULE
*****
 22 24 0 0 0
SMALL
GASTEIGER

@<TRIPOS>ATOM
      1 N         143.9520  139.9666  165.0362 N.am    1  UNL1       -0.2606
      2 C         143.8775  138.6765  165.7977 C.3     1  UNL1        0.1169
      3 C         143.0216  138.9017  167.0087 C.3     1  UNL1        0.1212
      4 N         142.5671  140.3312  166.9958 N.am    1  UNL1       -0.2413
      5 C         143.1421  140.9894  165.7766 C.2     1  UNL1        0.3111
      6 O         142.9423  142.4191  165.3695 O.2     1  UNL1       -0.2520
      7 C         141.6914  140.9873  168.0217 C.ar    1  UNL1        0.0562
      8 C         142.0357  142.3524  168.5392 C.ar    1  UNL1        0.0150
      9 C         141.1600  143.0086  169.5651 C.ar    1  UNL1        0.0021
     10 C         139.9399  142.2995  170.0736 C.ar    1  UNL1        0.0115
     11 C         139.5955  140.9343  169.5561 C.ar    1  UNL1        0.0589
     12 CL        138.3754  140.2253  170.0647 Cl      1  UNL1       -0.0822
     13 C         140.4713  140.2782  168.5302 C.ar    1  UNL1        0.0263
     14 C         144.7043  140.1942  163.7586 C.3     1  UNL1        0.1123
     15 C         144.0335  139.9495  162.4395 C.3     1  UNL1        0.0939
     16 C         138.3397  138.0646  162.2732 C.3     1  UNL1        0.0001
     17 C         139.7631  138.5358  162.3147 C.3     1  UNL1        0.0028
     18 C         140.0698  140.0027  162.2494 C.3     1  UNL1        0.0174
     19 C         141.4932  140.4739  162.2910 C.3     1  UNL1        0.0721
     20 N         142.6100  139.4783  162.3979 N.3     1  UNL1       -0.2712
     21 C         142.3034  138.0115  162.4632 C.3     1  UNL1        0.0721
     22 C         140.8799  137.5402  162.4216 C.3     1  UNL1        0.0174
@<TRIPOS>BOND
     1    16    17    1
     2    17    18    1
     3    18    19    1
     4    19    20    1
     5    20    15    1
     6    15    14    1
     7    14     1    1
     8     1     2    1
     9     2     3    1
    10     3     4    1
    11     4     7    1
    12     7     8   ar
    13     8     9   ar
    14     9    10   ar
    15    10    11   ar
    16    11    12    1
    17    11    13   ar
    18     4     5   am
    19     5     6    2
    20    20    21    1
    21    21    22    1
    22    22    17    1
    23     5     1   am
    24    13     7   ar
