@<TRIPOS>MOLECULE
*****
 25 28 0 0 0
SMALL
GASTEIGER

@<TRIPOS>ATOM
      1 C         138.4753  138.9959  165.4300 C.ar    1  UNL1        0.0536
      2 C         138.8754  137.6994  164.7906 C.ar    1  UNL1        0.0042
      3 C         138.8949  137.5749  163.2959 C.ar    1  UNL1       -0.0028
      4 C         138.5143  138.7470  162.4407 C.ar    1  UNL1       -0.0061
      5 C         138.1142  140.0435  163.0801 C.ar    1  UNL1       -0.0028
      6 C         138.0947  140.1680  164.5748 C.ar    1  UNL1        0.0042
      7 O         137.3610  138.4698  167.7173 O.2     1  UNL1       -0.2699
      8 C         138.4557  139.1204  166.9248 C.2     1  UNL1        0.2491
      9 N         139.5309  139.8956  167.6269 N.am    1  UNL1       -0.2732
     10 C         140.6257  140.5463  166.8344 C.3     1  UNL1        0.1110
     11 C         141.7009  141.3215  167.5366 C.3     1  UNL1        0.0939
     12 N         141.6813  141.4460  169.0313 N.3     1  UNL1       -0.2711
     13 C         140.5866  140.7953  169.8238 C.3     1  UNL1        0.0939
     14 C         139.5114  140.0201  169.1217 C.3     1  UNL1        0.1110
     15 C         142.7565  142.2211  169.7334 C.3     1  UNL1        0.0577
     16 C         144.2105  142.5071  169.9663 C.3     1  UNL1        0.0173
     17 C         143.1650  143.2777  170.7166 C.3     1  UNL1        0.0173
     18 C         138.5338  138.6225  160.9460 C.3     1  UNL1        0.0991
     19 N         139.8138  138.8323  160.1925 N.3     1  UNL1       -0.2688
     20 C         140.9890  139.4690  160.8733 C.3     1  UNL1        0.0752
     21 C         142.2690  139.6789  160.1198 C.3     1  UNL1        0.0526
     22 C         142.3737  139.2521  158.6856 C.3     1  UNL1        0.1638
     23 F         143.6536  139.4620  157.9322 F       1  UNL1       -0.2372
     24 C         141.1984  138.6154  158.0049 C.3     1  UNL1        0.0526
     25 C         139.9185  138.4055  158.7583 C.3     1  UNL1        0.0752
@<TRIPOS>BOND
     1     7     8    2
     2     8     1    1
     3     1     2   ar
     4     2     3   ar
     5     3     4   ar
     6     4    18    1
     7    18    19    1
     8    19    20    1
     9    20    21    1
    10    21    22    1
    11    22    23    1
    12    22    24    1
    13    24    25    1
    14     4     5   ar
    15     5     6   ar
    16     8     9   am
    17     9    10    1
    18    10    11    1
    19    11    12    1
    20    12    15    1
    21    15    16    1
    22    16    17    1
    23    12    13    1
    24    13    14    1
    25     6     1   ar
    26    14     9    1
    27    25    19    1
    28    17    15    1
@<TRIPOS>MOLECULE
*****
 25 28 0 0 0
SMALL
GASTEIGER

@<TRIPOS>ATOM
      1 C         138.6571  140.5017  164.3671 C.ar    1  UNL1        0.0536
      2 C         138.1772  139.3309  165.1726 C.ar    1  UNL1        0.0042
      3 C         138.6288  139.1623  166.5930 C.ar    1  UNL1       -0.0028
      4 C         139.5602  140.1644  167.2080 C.ar    1  UNL1       -0.0061
      5 C         140.0401  141.3352  166.4025 C.ar    1  UNL1       -0.0028
      6 C         139.5885  141.5039  164.9821 C.ar    1  UNL1        0.0042
      7 O         136.9750  141.4719  162.6410 O.2     1  UNL1       -0.2699
      8 C         138.2056  140.6705  162.9466 C.2     1  UNL1        0.2491
      9 N         138.9846  140.0378  161.8319 N.am    1  UNL1       -0.2732
     10 C         140.2152  139.2364  162.1375 C.3     1  UNL1        0.1110
     11 C         140.9943  138.6037  161.0226 C.3     1  UNL1        0.0939
     12 N         140.5427  138.7724  159.6022 N.3     1  UNL1       -0.2711
     13 C         139.3122  139.5738  159.2966 C.3     1  UNL1        0.0939
     14 C         138.5331  140.2065  160.4114 C.3     1  UNL1        0.1110
     15 C         141.3218  138.1397  158.4875 C.3     1  UNL1        0.0577
     16 C         142.6003  137.5542  157.9653 C.3     1  UNL1        0.0173
     17 C         141.3927  137.6294  157.0788 C.3     1  UNL1        0.0173
     18 C         140.0117  139.9957  168.6285 C.3     1  UNL1        0.0991
     19 N         140.9416  140.9988  169.2440 N.3     1  UNL1       -0.2688
     20 C         140.3963  142.2711  169.8220 C.3     1  UNL1        0.0752
     21 C         141.3263  143.2743  170.4376 C.3     1  UNL1        0.0526
     22 C         142.8015  143.0051  170.4752 C.3     1  UNL1        0.1638
     23 F         143.7314  144.0083  171.0907 F       1  UNL1       -0.2372
     24 C         143.3467  141.7329  169.8972 C.3     1  UNL1        0.0526
     25 C         142.4168  140.7297  169.2817 C.3     1  UNL1        0.0752
@<TRIPOS>BOND
     1     7     8    2
     2     8     1    1
     3     1     2   ar
     4     2     3   ar
     5     3     4   ar
     6     4    18    1
     7    18    19    1
     8    19    20    1
     9    20    21    1
    10    21    22    1
    11    22    23    1
    12    22    24    1
    13    24    25    1
    14     4     5   ar
    15     5     6   ar
    16     8     9   am
    17     9    10    1
    18    10    11    1
    19    11    12    1
    20    12    15    1
    21    15    16    1
    22    16    17    1
    23    12    13    1
    24    13    14    1
    25     6     1   ar
    26    14     9    1
    27    25    19    1
    28    17    15    1
@<TRIPOS>MOLECULE
*****
 25 28 0 0 0
SMALL
GASTEIGER

@<TRIPOS>ATOM
      1 C         139.9651  138.7301  164.3900 C.ar    1  UNL1        0.0536
      2 C         138.6441  138.5577  165.0794 C.ar    1  UNL1        0.0042
      3 C         138.4602  139.0545  166.4827 C.ar    1  UNL1       -0.0028
      4 C         139.5971  139.7237  167.1966 C.ar    1  UNL1       -0.0061
      5 C         140.9180  139.8961  166.5071 C.ar    1  UNL1       -0.0028
      6 C         141.1020  139.3993  165.1038 C.ar    1  UNL1        0.0042
      7 O         140.7311  136.8724  162.7431 O.2     1  UNL1       -0.2699
      8 C         140.1491  138.2333  162.9866 C.2     1  UNL1        0.2491
      9 N         139.7512  139.0973  161.8269 N.am    1  UNL1       -0.2732
     10 C         139.1692  140.4582  162.0704 C.3     1  UNL1        0.1110
     11 C         138.7712  141.3223  160.9106 C.3     1  UNL1        0.0939
     12 N         138.9553  140.8254  159.5073 N.3     1  UNL1       -0.2711
     13 C         139.5373  139.4646  159.2638 C.3     1  UNL1        0.0939
     14 C         139.9352  138.6005  160.4235 C.3     1  UNL1        0.1110
     15 C         138.5574  141.6895  158.3476 C.3     1  UNL1        0.0577
     16 C         138.9281  142.6434  157.2510 C.3     1  UNL1        0.0173
     17 C         137.4974  142.2321  157.4354 C.3     1  UNL1        0.0173
     18 C         139.4130  140.2205  168.5999 C.3     1  UNL1        0.0991
     19 N         140.4480  141.1101  169.2224 N.3     1  UNL1       -0.2688
     20 C         140.2440  142.5960  169.2455 C.3     1  UNL1        0.0752
     21 C         141.2791  143.4855  169.8680 C.3     1  UNL1        0.0526
     22 C         142.5180  142.8892  170.4674 C.3     1  UNL1        0.1638
     23 F         143.5530  143.7787  171.0899 F       1  UNL1       -0.2372
     24 C         142.7220  141.4033  170.4444 C.3     1  UNL1        0.0526
     25 C         141.6870  140.5137  169.8219 C.3     1  UNL1        0.0752
@<TRIPOS>BOND
     1     7     8    2
     2     8     1    1
     3     1     2   ar
     4     2     3   ar
     5     3     4   ar
     6     4    18    1
     7    18    19    1
     8    19    20    1
     9    20    21    1
    10    21    22    1
    11    22    23    1
    12    22    24    1
    13    24    25    1
    14     4     5   ar
    15     5     6   ar
    16     8     9   am
    17     9    10    1
    18    10    11    1
    19    11    12    1
    20    12    15    1
    21    15    16    1
    22    16    17    1
    23    12    13    1
    24    13    14    1
    25     6     1   ar
    26    14     9    1
    27    25    19    1
    28    17    15    1
@<TRIPOS>MOLECULE
*****
 25 28 0 0 0
SMALL
GASTEIGER

@<TRIPOS>ATOM
      1 C         143.8428  140.1558  164.2540 C.ar    1  UNL1        0.0536
      2 C         144.1256  138.8317  164.8995 C.ar    1  UNL1        0.0042
      3 C         143.6701  138.5697  166.3044 C.ar    1  UNL1       -0.0028
      4 C         142.9318  139.6318  167.0639 C.ar    1  UNL1       -0.0061
      5 C         142.6490  140.9559  166.4184 C.ar    1  UNL1       -0.0028
      6 C         143.1045  141.2179  165.0135 C.ar    1  UNL1        0.0042
      7 O         145.5364  141.2273  162.6007 O.2     1  UNL1       -0.2699
      8 C         144.2983  140.4178  162.8490 C.2     1  UNL1        0.2491
      9 N         143.5156  139.8704  161.6925 N.am    1  UNL1       -0.2732
     10 C         142.2774  139.0609  161.9408 C.3     1  UNL1        0.1110
     11 C         141.4947  138.5135  160.7841 C.3     1  UNL1        0.0939
     12 N         141.9502  138.7756  159.3792 N.3     1  UNL1       -0.2711
     13 C         143.1884  139.5850  159.1309 C.3     1  UNL1        0.0939
     14 C         143.9711  140.1325  160.2875 C.3     1  UNL1        0.1110
     15 C         141.1675  138.2282  158.2227 C.3     1  UNL1        0.0577
     16 C         139.8511  137.9622  157.5547 C.3     1  UNL1        0.0173
     17 C         141.1283  137.5460  156.8874 C.3     1  UNL1        0.0173
     18 C         142.4763  139.3698  168.4689 C.3     1  UNL1        0.0991
     19 N         141.6158  140.3732  169.1778 N.3     1  UNL1       -0.2688
     20 C         140.1270  140.1936  169.2119 C.3     1  UNL1        0.0752
     21 C         139.2665  141.1971  169.9208 C.3     1  UNL1        0.0526
     22 C         139.8949  142.3802  170.5957 C.3     1  UNL1        0.1638
     23 F         139.0344  143.3836  171.3046 F       1  UNL1       -0.2372
     24 C         141.3837  142.5598  170.5617 C.3     1  UNL1        0.0526
     25 C         142.2442  141.5564  169.8528 C.3     1  UNL1        0.0752
@<TRIPOS>BOND
     1     7     8    2
     2     8     1    1
     3     1     2   ar
     4     2     3   ar
     5     3     4   ar
     6     4    18    1
     7    18    19    1
     8    19    20    1
     9    20    21    1
    10    21    22    1
    11    22    23    1
    12    22    24    1
    13    24    25    1
    14     4     5   ar
    15     5     6   ar
    16     8     9   am
    17     9    10    1
    18    10    11    1
    19    11    12    1
    20    12    15    1
    21    15    16    1
    22    16    17    1
    23    12    13    1
    24    13    14    1
    25     6     1   ar
    26    14     9    1
    27    25    19    1
    28    17    15    1
@<TRIPOS>MOLECULE
*****
 25 28 0 0 0
SMALL
GASTEIGER

@<TRIPOS>ATOM
      1 C         138.8115  140.8405  164.0860 C.ar    1  UNL1        0.0536
      2 C         139.6913  141.8372  164.7806 C.ar    1  UNL1        0.0042
      3 C         140.0767  141.6261  166.2148 C.ar    1  UNL1       -0.0028
      4 C         139.5821  140.4184  166.9543 C.ar    1  UNL1       -0.0061
      5 C         138.7023  139.4218  166.2597 C.ar    1  UNL1       -0.0028
      6 C         138.3170  139.6328  164.8255 C.ar    1  UNL1        0.0042
      7 O         137.2299  141.8904  162.3122 O.2     1  UNL1       -0.2699
      8 C         138.4262  141.0516  162.6517 C.2     1  UNL1        0.2491
      9 N         139.2371  140.4238  161.5571 N.am    1  UNL1       -0.2732
     10 C         140.4333  139.5850  161.8966 C.3     1  UNL1        0.1110
     11 C         141.2443  138.9572  160.8018 C.3     1  UNL1        0.0939
     12 N         140.8589  139.1683  159.3677 N.3     1  UNL1       -0.2711
     13 C         139.6626  140.0071  159.0281 C.3     1  UNL1        0.0939
     14 C         138.8517  140.6349  160.1228 C.3     1  UNL1        0.1110
     15 C         141.6698  138.5405  158.2730 C.3     1  UNL1        0.0577
     16 C         141.9570  137.3742  157.3746 C.3     1  UNL1        0.0173
     17 C         142.7871  138.6195  157.2754 C.3     1  UNL1        0.0173
     18 C         139.9675  140.2073  168.3886 C.3     1  UNL1        0.0991
     19 N         140.9247  141.1507  169.0546 N.3     1  UNL1       -0.2688
     20 C         140.4366  142.4692  169.5776 C.3     1  UNL1        0.0752
     21 C         141.3939  143.4126  170.2437 C.3     1  UNL1        0.0526
     22 C         142.8392  143.0376  170.3868 C.3     1  UNL1        0.1638
     23 F         143.7964  143.9811  171.0528 F       1  UNL1       -0.2372
     24 C         143.3272  141.7192  169.8638 C.3     1  UNL1        0.0526
     25 C         142.3700  140.7758  169.1977 C.3     1  UNL1        0.0752
@<TRIPOS>BOND
     1     7     8    2
     2     8     1    1
     3     1     2   ar
     4     2     3   ar
     5     3     4   ar
     6     4    18    1
     7    18    19    1
     8    19    20    1
     9    20    21    1
    10    21    22    1
    11    22    23    1
    12    22    24    1
    13    24    25    1
    14     4     5   ar
    15     5     6   ar
    16     8     9   am
    17     9    10    1
    18    10    11    1
    19    11    12    1
    20    12    15    1
    21    15    16    1
    22    16    17    1
    23    12    13    1
    24    13    14    1
    25     6     1   ar
    26    14     9    1
    27    25    19    1
    28    17    15    1
@<TRIPOS>MOLECULE
*****
 25 28 0 0 0
SMALL
GASTEIGER

@<TRIPOS>ATOM
      1 C         138.7821  141.1400  163.0160 C.ar    1  UNL1        0.0536
      2 C         140.0983  141.5767  163.5876 C.ar    1  UNL1        0.0042
      3 C         140.4801  141.1768  164.9820 C.ar    1  UNL1       -0.0028
      4 C         139.5456  140.3403  165.8047 C.ar    1  UNL1       -0.0061
      5 C         138.2294  139.9036  165.2331 C.ar    1  UNL1       -0.0028
      6 C         137.8477  140.3034  163.8387 C.ar    1  UNL1        0.0042
      7 O         137.6765  142.8319  161.3834 O.2     1  UNL1       -0.2699
      8 C         138.4003  141.5398  161.6215 C.2     1  UNL1        0.2491
      9 N         138.7423  140.6476  160.4653 N.am    1  UNL1       -0.2732
     10 C         139.4661  139.3555  160.7034 C.3     1  UNL1        0.1110
     11 C         139.8081  138.4633  159.5470 C.3     1  UNL1        0.0939
     12 N         139.4263  138.8632  158.1527 N.3     1  UNL1       -0.2711
     13 C         138.7025  140.1553  157.9146 C.3     1  UNL1        0.0939
     14 C         138.3605  141.0474  159.0708 C.3     1  UNL1        0.1110
     15 C         139.7683  137.9710  156.9964 C.3     1  UNL1        0.0577
     16 C         139.3383  137.1573  155.8119 C.3     1  UNL1        0.0173
     17 C         140.7906  137.2394  156.1781 C.3     1  UNL1        0.0173
     18 C         139.9274  139.9404  167.1992 C.3     1  UNL1        0.0991
     19 N         140.7670  140.8569  168.0389 N.3     1  UNL1       -0.2688
     20 C         142.1841  140.4882  168.3643 C.3     1  UNL1        0.0752
     21 C         143.0236  141.4048  169.2041 C.3     1  UNL1        0.0526
     22 C         142.4460  142.6900  169.7184 C.3     1  UNL1        0.1638
     23 F         143.2856  143.6065  170.5581 F       1  UNL1       -0.2372
     24 C         141.0289  143.0588  169.3930 C.3     1  UNL1        0.0526
     25 C         140.1894  142.1422  168.5532 C.3     1  UNL1        0.0752
@<TRIPOS>BOND
     1     7     8    2
     2     8     1    1
     3     1     2   ar
     4     2     3   ar
     5     3     4   ar
     6     4    18    1
     7    18    19    1
     8    19    20    1
     9    20    21    1
    10    21    22    1
    11    22    23    1
    12    22    24    1
    13    24    25    1
    14     4     5   ar
    15     5     6   ar
    16     8     9   am
    17     9    10    1
    18    10    11    1
    19    11    12    1
    20    12    15    1
    21    15    16    1
    22    16    17    1
    23    12    13    1
    24    13    14    1
    25     6     1   ar
    26    14     9    1
    27    25    19    1
    28    17    15    1
@<TRIPOS>MOLECULE
*****
 25 28 0 0 0
SMALL
GASTEIGER

@<TRIPOS>ATOM
      1 C         141.5411  138.8200  163.7265 C.ar    1  UNL1        0.0536
      2 C         140.8252  139.9340  164.4310 C.ar    1  UNL1        0.0042
      3 C         141.1792  140.2751  165.8481 C.ar    1  UNL1       -0.0028
      4 C         142.2492  139.5023  166.5607 C.ar    1  UNL1       -0.0061
      5 C         142.9651  138.3882  165.8562 C.ar    1  UNL1       -0.0028
      6 C         142.6111  138.0471  164.4391 C.ar    1  UNL1        0.0042
      7 O         140.0348  137.5618  162.0242 O.2     1  UNL1       -0.2699
      8 C         141.1871  138.4788  162.3093 C.2     1  UNL1        0.2491
      9 N         141.9853  139.0545  161.1775 N.am    1  UNL1       -0.2732
     10 C         143.1376  139.9715  161.4627 C.3     1  UNL1        0.1110
     11 C         143.9359  140.5473  160.3307 C.3     1  UNL1        0.0939
     12 N         143.5819  140.2061  158.9136 N.3     1  UNL1       -0.2711
     13 C         142.4296  139.2891  158.6284 C.3     1  UNL1        0.0939
     14 C         141.6313  138.7133  159.7603 C.3     1  UNL1        0.1110
     15 C         144.3801  140.7819  157.7817 C.3     1  UNL1        0.0577
     16 C         145.0935  140.6061  156.4740 C.3     1  UNL1        0.0173
     17 C         145.0493  141.9549  157.1289 C.3     1  UNL1        0.0173
     18 C         142.6032  139.8435  167.9779 C.3     1  UNL1        0.0991
     19 N         141.7182  140.7571  168.7729 N.3     1  UNL1       -0.2688
     20 C         142.0918  142.1994  168.9463 C.3     1  UNL1        0.0752
     21 C         141.2067  143.1130  169.7414 C.3     1  UNL1        0.0526
     22 C         139.9481  142.5843  170.3629 C.3     1  UNL1        0.1638
     23 F         139.0631  143.4979  171.1578 F       1  UNL1       -0.2372
     24 C         139.5745  141.1420  170.1894 C.3     1  UNL1        0.0526
     25 C         140.4595  140.2284  169.3944 C.3     1  UNL1        0.0752
@<TRIPOS>BOND
     1     7     8    2
     2     8     1    1
     3     1     2   ar
     4     2     3   ar
     5     3     4   ar
     6     4    18    1
     7    18    19    1
     8    19    20    1
     9    20    21    1
    10    21    22    1
    11    22    23    1
    12    22    24    1
    13    24    25    1
    14     4     5   ar
    15     5     6   ar
    16     8     9   am
    17     9    10    1
    18    10    11    1
    19    11    12    1
    20    12    15    1
    21    15    16    1
    22    16    17    1
    23    12    13    1
    24    13    14    1
    25     6     1   ar
    26    14     9    1
    27    25    19    1
    28    17    15    1
@<TRIPOS>MOLECULE
*****
 25 28 0 0 0
SMALL
GASTEIGER

@<TRIPOS>ATOM
      1 C         140.1453  139.0717  162.7199 C.ar    1  UNL1        0.0536
      2 C         140.2560  137.8802  163.6244 C.ar    1  UNL1        0.0042
      3 C         140.8485  138.0309  164.9941 C.ar    1  UNL1       -0.0028
      4 C         141.3303  139.3731  165.4593 C.ar    1  UNL1       -0.0061
      5 C         141.2196  140.5646  164.5549 C.ar    1  UNL1       -0.0028
      6 C         140.6271  140.4138  163.1852 C.ar    1  UNL1        0.0042
      7 O         138.0853  139.1490  161.1385 O.2     1  UNL1       -0.2699
      8 C         139.5527  138.9210  161.3501 C.2     1  UNL1        0.2491
      9 N         140.4275  138.5424  160.1920 N.am    1  UNL1       -0.2732
     10 C         141.8949  138.3144  160.4036 C.3     1  UNL1        0.1110
     11 C         142.7698  137.9358  159.2454 C.3     1  UNL1        0.0939
     12 N         142.1772  137.7851  157.8757 N.3     1  UNL1       -0.2711
     13 C         140.7098  138.0131  157.6641 C.3     1  UNL1        0.0939
     14 C         139.8350  138.3917  158.8222 C.3     1  UNL1        0.1110
     15 C         143.0520  137.4065  156.7176 C.3     1  UNL1        0.0577
     16 C         143.9058  137.8040  155.5501 C.3     1  UNL1        0.0173
     17 C         143.7135  136.3533  155.8791 C.3     1  UNL1        0.0173
     18 C         141.9229  139.5238  166.8291 C.3     1  UNL1        0.0991
     19 N         141.2748  140.4329  167.8308 N.3     1  UNL1       -0.2688
     20 C         140.0696  139.9698  168.5944 C.3     1  UNL1        0.0752
     21 C         139.4214  140.8790  169.5961 C.3     1  UNL1        0.0526
     22 C         139.9785  142.2512  169.8342 C.3     1  UNL1        0.1638
     23 F         139.3304  143.1603  170.8359 F       1  UNL1       -0.2372
     24 C         141.1837  142.7143  169.0706 C.3     1  UNL1        0.0526
     25 C         141.8318  141.8051  168.0690 C.3     1  UNL1        0.0752
@<TRIPOS>BOND
     1     7     8    2
     2     8     1    1
     3     1     2   ar
     4     2     3   ar
     5     3     4   ar
     6     4    18    1
     7    18    19    1
     8    19    20    1
     9    20    21    1
    10    21    22    1
    11    22    23    1
    12    22    24    1
    13    24    25    1
    14     4     5   ar
    15     5     6   ar
    16     8     9   am
    17     9    10    1
    18    10    11    1
    19    11    12    1
    20    12    15    1
    21    15    16    1
    22    16    17    1
    23    12    13    1
    24    13    14    1
    25     6     1   ar
    26    14     9    1
    27    25    19    1
    28    17    15    1
@<TRIPOS>MOLECULE
*****
 25 28 0 0 0
SMALL
GASTEIGER

@<TRIPOS>ATOM
      1 C         138.3332  139.4517  162.4946 C.ar    1  UNL1        0.0536
      2 C         138.0787  140.6875  163.3058 C.ar    1  UNL1        0.0042
      3 C         138.1763  140.6359  164.8017 C.ar    1  UNL1       -0.0028
      4 C         138.5284  139.3486  165.4864 C.ar    1  UNL1       -0.0061
      5 C         138.7829  138.1128  164.6752 C.ar    1  UNL1       -0.0028
      6 C         138.6853  138.1644  163.1793 C.ar    1  UNL1        0.0042
      7 O         136.8989  139.3791  160.3295 O.2     1  UNL1       -0.2699
      8 C         138.2357  139.5032  160.9986 C.2     1  UNL1        0.2491
      9 N         139.4748  139.6789  160.1718 N.am    1  UNL1       -0.2732
     10 C         140.8116  139.8030  160.8409 C.3     1  UNL1        0.1110
     11 C         142.0507  139.9786  160.0140 C.3     1  UNL1        0.0939
     12 N         141.9531  140.0301  158.5181 N.3     1  UNL1       -0.2711
     13 C         140.6164  139.9060  157.8490 C.3     1  UNL1        0.0939
     14 C         139.3772  139.7304  158.6758 C.3     1  UNL1        0.1110
     15 C         143.1923  140.2057  157.6913 C.3     1  UNL1        0.0577
     16 C         144.5564  140.8012  157.5056 C.3     1  UNL1        0.0173
     17 C         143.9744  139.9144  156.4450 C.3     1  UNL1        0.0173
     18 C         138.6260  139.2971  166.9824 C.3     1  UNL1        0.0991
     19 N         139.8693  139.7781  167.6699 N.3     1  UNL1       -0.2688
     20 C         139.8032  140.2593  169.0891 C.3     1  UNL1        0.0752
     21 C         141.0466  140.7403  169.7766 C.3     1  UNL1        0.0526
     22 C         142.3560  140.7401  169.0449 C.3     1  UNL1        0.1638
     23 F         143.5994  141.2211  169.7324 F       1  UNL1       -0.2372
     24 C         142.4221  140.2589  167.6257 C.3     1  UNL1        0.0526
     25 C         141.1788  139.7779  166.9382 C.3     1  UNL1        0.0752
@<TRIPOS>BOND
     1     7     8    2
     2     8     1    1
     3     1     2   ar
     4     2     3   ar
     5     3     4   ar
     6     4    18    1
     7    18    19    1
     8    19    20    1
     9    20    21    1
    10    21    22    1
    11    22    23    1
    12    22    24    1
    13    24    25    1
    14     4     5   ar
    15     5     6   ar
    16     8     9   am
    17     9    10    1
    18    10    11    1
    19    11    12    1
    20    12    15    1
    21    15    16    1
    22    16    17    1
    23    12    13    1
    24    13    14    1
    25     6     1   ar
    26    14     9    1
    27    25    19    1
    28    17    15    1
