@<TRIPOS>MOLECULE
*****
 22 24 0 0 0
SMALL
GASTEIGER

@<TRIPOS>ATOM
      1 C         138.4845  140.4791  165.1969 C.2     1  UNL1       -0.0420
      2 C         139.6313  141.2812  165.7369 C.2     1  UNL1       -0.0240
      3 C         139.7657  142.5191  164.9006 C.ar    1  UNL1       -0.0078
      4 C         140.7192  143.6752  164.9649 C.ar    1  UNL1        0.0002
      5 C         140.6090  144.7943  163.9722 C.ar    1  UNL1        0.0114
      6 C         139.5453  144.7573  162.9153 C.ar    1  UNL1        0.0574
      7 CL        139.4351  145.8765  161.9226 Cl      1  UNL1       -0.0823
      8 C         138.5918  143.6012  162.8510 C.ar    1  UNL1        0.0074
      9 C         138.7020  142.4821  163.8436 C.ar    1  UNL1       -0.0176
     10 C         137.9102  141.2213  164.0268 C.3     1  UNL1        0.0480
     11 C         137.9976  139.1655  165.7329 C.3     1  UNL1        0.0394
     12 C         138.7454  137.9037  165.4187 C.3     1  UNL1        0.0765
     13 C         141.0431  137.7386  164.2174 C.3     1  UNL1        0.0897
     14 N         139.5457  137.8013  164.1542 N.3     1  UNL1       -0.2700
     15 C         138.8487  137.7615  162.8266 C.3     1  UNL1        0.0897
     16 C         140.4925  140.9104  166.9078 C.3     1  UNL1        0.0730
     17 C         140.2640  141.5576  168.2416 C.ar    1  UNL1        0.0825
     18 C         139.5862  140.7931  169.3399 C.ar    1  UNL1        0.1139
     19 N         139.3577  141.4402  170.6737 N.ar    1  UNL1       -0.2394
     20 C         139.8071  142.8518  170.9092 C.ar    1  UNL1        0.1195
     21 C         140.4849  143.6162  169.8110 C.ar    1  UNL1        0.1191
     22 N         140.7134  142.9692  168.4772 N.ar    1  UNL1       -0.2446
@<TRIPOS>BOND
     1    13    14    1
     2    14    15    1
     3    14    12    1
     4    12    11    1
     5    11     1    1
     6     1     2    2
     7     2    16    1
     8    16    17    1
     9    17    18   ar
    10    18    19   ar
    11    19    20   ar
    12    20    21   ar
    13    21    22   ar
    14     2     3    1
    15     3     4   ar
    16     4     5   ar
    17     5     6   ar
    18     6     7    1
    19     6     8   ar
    20     8     9   ar
    21     9    10    1
    22    10     1    1
    23    22    17   ar
    24     9     3   ar
@<TRIPOS>MOLECULE
*****
 22 24 0 0 0
SMALL
GASTEIGER

@<TRIPOS>ATOM
      1 C         143.6766  139.6287  164.0225 C.2     1  UNL1       -0.0420
      2 C         142.8526  138.8930  165.0372 C.2     1  UNL1       -0.0240
      3 C         141.5247  138.5770  164.4151 C.ar    1  UNL1       -0.0078
      4 C         140.3130  137.8670  164.9419 C.ar    1  UNL1        0.0002
      5 C         139.1047  137.6975  164.0695 C.ar    1  UNL1        0.0114
      6 C         139.1081  138.2379  162.6702 C.ar    1  UNL1        0.0574
      7 CL        137.8997  138.0683  161.7978 Cl      1  UNL1       -0.0823
      8 C         140.3198  138.9479  162.1434 C.ar    1  UNL1        0.0074
      9 C         141.5281  139.1174  163.0158 C.ar    1  UNL1       -0.0176
     10 C         142.8580  139.7674  162.7732 C.3     1  UNL1        0.0480
     11 C         145.0739  140.1365  164.2220 C.3     1  UNL1        0.0394
     12 C         145.5396  141.3588  163.4879 C.3     1  UNL1        0.0765
     13 C         144.4878  143.1487  165.0500 C.3     1  UNL1        0.0897
     14 N         144.8209  142.6627  163.6705 N.3     1  UNL1       -0.2700
     15 C         144.4353  143.4805  162.4737 C.3     1  UNL1        0.0897
     16 C         143.2811  138.5359  166.4296 C.3     1  UNL1        0.0730
     17 C         142.8723  139.4007  167.5852 C.ar    1  UNL1        0.0825
     18 C         142.3928  140.8009  167.3413 C.ar    1  UNL1        0.1139
     19 N         141.9840  141.6657  168.4967 N.ar    1  UNL1       -0.2394
     20 C         142.0548  141.1302  169.8960 C.ar    1  UNL1        0.1195
     21 C         142.5344  139.7301  170.1400 C.ar    1  UNL1        0.1191
     22 N         142.9431  138.8653  168.9846 N.ar    1  UNL1       -0.2446
@<TRIPOS>BOND
     1    13    14    1
     2    14    15    1
     3    14    12    1
     4    12    11    1
     5    11     1    1
     6     1     2    2
     7     2    16    1
     8    16    17    1
     9    17    18   ar
    10    18    19   ar
    11    19    20   ar
    12    20    21   ar
    13    21    22   ar
    14     2     3    1
    15     3     4   ar
    16     4     5   ar
    17     5     6   ar
    18     6     7    1
    19     6     8   ar
    20     8     9   ar
    21     9    10    1
    22    10     1    1
    23    22    17   ar
    24     9     3   ar
@<TRIPOS>MOLECULE
*****
 22 24 0 0 0
SMALL
GASTEIGER

@<TRIPOS>ATOM
      1 C         143.2631  141.1884  165.7931 C.2     1  UNL1       -0.0420
      2 C         142.3572  140.0857  166.2549 C.2     1  UNL1       -0.0240
      3 C         141.5479  140.6025  167.4073 C.ar    1  UNL1       -0.0078
      4 C         140.4940  139.9619  168.2609 C.ar    1  UNL1        0.0002
      5 C         139.8458  140.7434  169.3649 C.ar    1  UNL1        0.0114
      6 C         140.2515  142.1656  169.6154 C.ar    1  UNL1        0.0574
      7 CL        139.6033  142.9471  170.7195 Cl      1  UNL1       -0.0823
      8 C         141.3055  142.8062  168.7618 C.ar    1  UNL1        0.0074
      9 C         141.9537  142.0247  167.6577 C.ar    1  UNL1       -0.0176
     10 C         143.0137  142.3868  166.6601 C.3     1  UNL1        0.0480
     11 C         144.2459  141.1071  164.6628 C.3     1  UNL1        0.0394
     12 C         145.0311  142.3209  164.2629 C.3     1  UNL1        0.0765
     13 C         143.8428  144.5669  163.7207 C.3     1  UNL1        0.0897
     14 N         144.4661  143.2827  163.2599 N.3     1  UNL1       -0.2700
     15 C         144.5246  142.9602  161.7961 C.3     1  UNL1        0.0897
     16 C         142.2750  138.7080  165.6674 C.3     1  UNL1        0.0730
     17 C         141.2463  138.3993  164.6201 C.ar    1  UNL1        0.0825
     18 C         141.6543  137.7247  163.3440 C.ar    1  UNL1        0.1139
     19 N         140.6258  137.4161  162.2967 N.ar    1  UNL1       -0.2394
     20 C         139.1893  137.7821  162.5256 C.ar    1  UNL1        0.1195
     21 C         138.7813  138.4567  163.8017 C.ar    1  UNL1        0.1191
     22 N         139.8098  138.7653  164.8490 N.ar    1  UNL1       -0.2446
@<TRIPOS>BOND
     1    13    14    1
     2    14    15    1
     3    14    12    1
     4    12    11    1
     5    11     1    1
     6     1     2    2
     7     2    16    1
     8    16    17    1
     9    17    18   ar
    10    18    19   ar
    11    19    20   ar
    12    20    21   ar
    13    21    22   ar
    14     2     3    1
    15     3     4   ar
    16     4     5   ar
    17     5     6   ar
    18     6     7    1
    19     6     8   ar
    20     8     9   ar
    21     9    10    1
    22    10     1    1
    23    22    17   ar
    24     9     3   ar
@<TRIPOS>MOLECULE
*****
 22 24 0 0 0
SMALL
GASTEIGER

@<TRIPOS>ATOM
      1 C         138.8410  142.5171  165.0289 C.2     1  UNL1       -0.0420
      2 C         138.9636  141.0764  165.4280 C.2     1  UNL1       -0.0240
      3 C         140.0374  140.9739  166.4703 C.ar    1  UNL1       -0.0078
      4 C         140.5924  139.8043  167.2279 C.ar    1  UNL1        0.0002
      5 C         141.6884  140.0121  168.2307 C.ar    1  UNL1        0.0114
      6 C         142.2294  141.3895  168.4758 C.ar    1  UNL1        0.0574
      7 CL        143.3255  141.5972  169.4786 Cl      1  UNL1       -0.0823
      8 C         141.6744  142.5591  167.7182 C.ar    1  UNL1        0.0074
      9 C         140.5784  142.3513  166.7155 C.ar    1  UNL1       -0.0176
     10 C         139.8390  143.3050  165.8246 C.3     1  UNL1        0.0480
     11 C         137.8878  143.0724  164.0125 C.3     1  UNL1        0.0394
     12 C         138.1311  144.4279  163.4180 C.3     1  UNL1        0.0765
     13 C         139.1982  143.3882  161.2895 C.3     1  UNL1        0.0897
     14 N         138.9843  144.5671  162.1922 N.3     1  UNL1       -0.2700
     15 C         139.6235  145.8849  161.8690 C.3     1  UNL1        0.0897
     16 C         138.1546  139.9380  164.8807 C.3     1  UNL1        0.0730
     17 C         138.5081  139.3368  163.5526 C.ar    1  UNL1        0.0825
     18 C         139.5433  138.2543  163.4711 C.ar    1  UNL1        0.1139
     19 N         139.8969  137.6531  162.1432 N.ar    1  UNL1       -0.2394
     20 C         139.2153  138.1345  160.8967 C.ar    1  UNL1        0.1195
     21 C         138.1802  139.2171  160.9782 C.ar    1  UNL1        0.1191
     22 N         137.8266  139.8182  162.3062 N.ar    1  UNL1       -0.2446
@<TRIPOS>BOND
     1    13    14    1
     2    14    15    1
     3    14    12    1
     4    12    11    1
     5    11     1    1
     6     1     2    2
     7     2    16    1
     8    16    17    1
     9    17    18   ar
    10    18    19   ar
    11    19    20   ar
    12    20    21   ar
    13    21    22   ar
    14     2     3    1
    15     3     4   ar
    16     4     5   ar
    17     5     6   ar
    18     6     7    1
    19     6     8   ar
    20     8     9   ar
    21     9    10    1
    22    10     1    1
    23    22    17   ar
    24     9     3   ar
@<TRIPOS>MOLECULE
*****
 22 24 0 0 0
SMALL
GASTEIGER

@<TRIPOS>ATOM
      1 C         141.0818  142.5033  165.0533 C.2     1  UNL1       -0.0420
      2 C         140.0089  141.6641  165.6814 C.2     1  UNL1       -0.0240
      3 C         140.5319  141.1444  166.9876 C.ar    1  UNL1       -0.0078
      4 C         139.9172  140.2665  168.0370 C.ar    1  UNL1        0.0002
      5 C         140.6987  139.9065  169.2657 C.ar    1  UNL1        0.0114
      6 C         142.0950  140.4246  169.4449 C.ar    1  UNL1        0.0574
      7 CL        142.8765  140.0646  170.6737 Cl      1  UNL1       -0.0823
      8 C         142.7097  141.3026  168.3956 C.ar    1  UNL1        0.0074
      9 C         141.9282  141.6625  167.1669 C.ar    1  UNL1       -0.0176
     10 C         142.2680  142.5023  165.9714 C.3     1  UNL1        0.0480
     11 C         140.9855  143.2181  163.7380 C.3     1  UNL1        0.0394
     12 C         140.6055  144.6685  163.6987 C.3     1  UNL1        0.0765
     13 C         138.1107  144.4939  162.9944 C.3     1  UNL1        0.0897
     14 N         139.4640  145.1217  162.8374 N.3     1  UNL1       -0.2700
     15 C         139.6758  146.2026  161.8193 C.3     1  UNL1        0.0897
     16 C         138.6512  141.3923  165.1044 C.3     1  UNL1        0.0730
     17 C         138.4782  140.3255  164.0641 C.ar    1  UNL1        0.0825
     18 C         137.7984  140.6469  162.7662 C.ar    1  UNL1        0.1139
     19 N         137.6254  139.5803  161.7258 N.ar    1  UNL1       -0.2394
     20 C         138.1323  138.1923  161.9834 C.ar    1  UNL1        0.1195
     21 C         138.8122  137.8709  163.2813 C.ar    1  UNL1        0.1191
     22 N         138.9852  138.9375  164.3216 N.ar    1  UNL1       -0.2446
@<TRIPOS>BOND
     1    13    14    1
     2    14    15    1
     3    14    12    1
     4    12    11    1
     5    11     1    1
     6     1     2    2
     7     2    16    1
     8    16    17    1
     9    17    18   ar
    10    18    19   ar
    11    19    20   ar
    12    20    21   ar
    13    21    22   ar
    14     2     3    1
    15     3     4   ar
    16     4     5   ar
    17     5     6   ar
    18     6     7    1
    19     6     8   ar
    20     8     9   ar
    21     9    10    1
    22    10     1    1
    23    22    17   ar
    24     9     3   ar
@<TRIPOS>MOLECULE
*****
 22 24 0 0 0
SMALL
GASTEIGER

@<TRIPOS>ATOM
      1 C         140.7500  138.1658  164.5135 C.2     1  UNL1       -0.0420
      2 C         141.9447  138.8165  165.1453 C.2     1  UNL1       -0.0240
      3 C         141.4882  139.5104  166.3943 C.ar    1  UNL1       -0.0078
      4 C         142.2265  140.3157  167.4221 C.ar    1  UNL1        0.0002
      5 C         141.4879  140.8990  168.5901 C.ar    1  UNL1        0.0114
      6 C         140.0111  140.6772  168.7302 C.ar    1  UNL1        0.0574
      7 CL        139.2725  141.2606  169.8983 Cl      1  UNL1       -0.0823
      8 C         139.2728  139.8720  167.7024 C.ar    1  UNL1        0.0074
      9 C         140.0113  139.2886  166.5345 C.ar    1  UNL1       -0.0176
     10 C         139.5551  138.4575  165.3720 C.3     1  UNL1        0.0480
     11 C         140.7501  137.3640  163.2457 C.3     1  UNL1        0.0394
     12 C         140.4777  138.0366  161.9329 C.3     1  UNL1        0.0765
     13 C         137.9054  138.3929  161.8543 C.3     1  UNL1        0.0897
     14 N         139.2966  138.9500  161.7890 N.3     1  UNL1       -0.2700
     15 C         139.5067  140.4204  161.5798 C.3     1  UNL1        0.0897
     16 C         143.3493  138.7798  164.6203 C.3     1  UNL1        0.0730
     17 C         143.8738  139.9215  163.8008 C.ar    1  UNL1        0.0825
     18 C         145.2794  140.4052  164.0015 C.ar    1  UNL1        0.1139
     19 N         145.8040  141.5469  163.1822 N.ar    1  UNL1       -0.2394
     20 C         144.9229  142.2049  162.1620 C.ar    1  UNL1        0.1195
     21 C         143.5173  141.7212  161.9613 C.ar    1  UNL1        0.1191
     22 N         142.9927  140.5795  162.7807 N.ar    1  UNL1       -0.2446
@<TRIPOS>BOND
     1    13    14    1
     2    14    15    1
     3    14    12    1
     4    12    11    1
     5    11     1    1
     6     1     2    2
     7     2    16    1
     8    16    17    1
     9    17    18   ar
    10    18    19   ar
    11    19    20   ar
    12    20    21   ar
    13    21    22   ar
    14     2     3    1
    15     3     4   ar
    16     4     5   ar
    17     5     6   ar
    18     6     7    1
    19     6     8   ar
    20     8     9   ar
    21     9    10    1
    22    10     1    1
    23    22    17   ar
    24     9     3   ar
@<TRIPOS>MOLECULE
*****
 22 24 0 0 0
SMALL
GASTEIGER

@<TRIPOS>ATOM
      1 C         141.3684  139.3460  166.0470 C.2     1  UNL1       -0.0420
      2 C         140.2688  140.2770  166.4641 C.2     1  UNL1       -0.0240
      3 C         140.7996  141.1638  167.5512 C.ar    1  UNL1       -0.0078
      4 C         140.1674  142.2705  168.3421 C.ar    1  UNL1        0.0002
      5 C         140.9630  142.9943  169.3876 C.ar    1  UNL1        0.0114
      6 C         142.3907  142.6114  169.6423 C.ar    1  UNL1        0.0574
      7 CL        143.1863  143.3352  170.6879 Cl      1  UNL1       -0.0823
      8 C         143.0229  141.5047  168.8515 C.ar    1  UNL1        0.0074
      9 C         142.2274  140.7809  167.8059 C.ar    1  UNL1       -0.0176
     10 C         142.5789  139.6574  166.8763 C.3     1  UNL1        0.0480
     11 C         141.2741  138.2891  164.9867 C.3     1  UNL1        0.0394
     12 C         141.3973  138.6652  163.5399 C.3     1  UNL1        0.0765
     13 C         140.1850  139.2515  161.3180 C.3     1  UNL1        0.0897
     14 N         140.2209  138.5110  162.6221 N.3     1  UNL1       -0.2700
     15 C         139.0805  137.6165  163.0083 C.3     1  UNL1        0.0897
     16 C         138.8818  140.3146  165.8943 C.3     1  UNL1        0.0730
     17 C         138.5377  141.3066  164.8228 C.ar    1  UNL1        0.0825
     18 C         137.6893  140.8889  163.6585 C.ar    1  UNL1        0.1139
     19 N         137.3453  141.8807  162.5871 N.ar    1  UNL1       -0.2394
     20 C         137.8498  143.2903  162.6801 C.ar    1  UNL1        0.1195
     21 C         138.6982  143.7080  163.8444 C.ar    1  UNL1        0.1191
     22 N         139.0422  142.7162  164.9158 N.ar    1  UNL1       -0.2446
@<TRIPOS>BOND
     1    13    14    1
     2    14    15    1
     3    14    12    1
     4    12    11    1
     5    11     1    1
     6     1     2    2
     7     2    16    1
     8    16    17    1
     9    17    18   ar
    10    18    19   ar
    11    19    20   ar
    12    20    21   ar
    13    21    22   ar
    14     2     3    1
    15     3     4   ar
    16     4     5   ar
    17     5     6   ar
    18     6     7    1
    19     6     8   ar
    20     8     9   ar
    21     9    10    1
    22    10     1    1
    23    22    17   ar
    24     9     3   ar
@<TRIPOS>MOLECULE
*****
 22 24 0 0 0
SMALL
GASTEIGER

@<TRIPOS>ATOM
      1 C         138.9794  140.0245  165.2535 C.2     1  UNL1       -0.0420
      2 C         139.5352  141.4086  165.4123 C.2     1  UNL1       -0.0240
      3 C         139.9351  141.5858  166.8471 C.ar    1  UNL1       -0.0078
      4 C         140.5404  142.7431  167.5847 C.ar    1  UNL1        0.0002
      5 C         140.8371  142.6258  169.0504 C.ar    1  UNL1        0.0114
      6 C         140.5284  141.3511  169.7784 C.ar    1  UNL1        0.0574
      7 CL        140.8252  141.2338  171.2441 Cl      1  UNL1       -0.0823
      8 C         139.9231  140.1938  169.0407 C.ar    1  UNL1        0.0074
      9 C         139.6265  140.3112  167.5751 C.ar    1  UNL1       -0.0176
     10 C         139.0358  139.3462  166.5902 C.3     1  UNL1        0.0480
     11 C         138.4586  139.4241  163.9814 C.3     1  UNL1        0.0394
     12 C         138.8424  138.0250  163.6003 C.3     1  UNL1        0.0765
     13 C         141.1519  137.1178  164.3706 C.3     1  UNL1        0.0897
     14 N         140.2746  137.6956  163.2997 N.3     1  UNL1       -0.2700
     15 C         140.8295  137.9439  161.9285 C.3     1  UNL1        0.0897
     16 C         139.6678  142.4354  164.3268 C.3     1  UNL1        0.0730
     17 C         140.9518  143.1939  164.1648 C.ar    1  UNL1        0.0825
     18 C         140.9259  144.6834  163.9894 C.ar    1  UNL1        0.1139
     19 N         142.2097  145.4420  163.8273 N.ar    1  UNL1       -0.2394
     20 C         143.5195  144.7110  163.8406 C.ar    1  UNL1        0.1195
     21 C         143.5454  143.2215  164.0160 C.ar    1  UNL1        0.1191
     22 N         142.2616  142.4630  164.1781 N.ar    1  UNL1       -0.2446
@<TRIPOS>BOND
     1    13    14    1
     2    14    15    1
     3    14    12    1
     4    12    11    1
     5    11     1    1
     6     1     2    2
     7     2    16    1
     8    16    17    1
     9    17    18   ar
    10    18    19   ar
    11    19    20   ar
    12    20    21   ar
    13    21    22   ar
    14     2     3    1
    15     3     4   ar
    16     4     5   ar
    17     5     6   ar
    18     6     7    1
    19     6     8   ar
    20     8     9   ar
    21     9    10    1
    22    10     1    1
    23    22    17   ar
    24     9     3   ar
@<TRIPOS>MOLECULE
*****
 22 24 0 0 0
SMALL
GASTEIGER

@<TRIPOS>ATOM
      1 C         141.6044  138.7200  165.2723 C.2     1  UNL1       -0.0420
      2 C         140.2815  139.1793  165.8097 C.2     1  UNL1       -0.0240
      3 C         140.4976  139.6817  167.2065 C.ar    1  UNL1       -0.0078
      4 C         139.5563  140.2554  168.2237 C.ar    1  UNL1        0.0002
      5 C         140.0716  140.6803  169.5668 C.ar    1  UNL1        0.0114
      6 C         141.5282  140.5314  169.8926 C.ar    1  UNL1        0.0574
      7 CL        142.0435  140.9563  171.2358 Cl      1  UNL1       -0.0823
      8 C         142.4695  139.9577  168.8754 C.ar    1  UNL1        0.0074
      9 C         141.9542  139.5328  167.5324 C.ar    1  UNL1       -0.0176
     10 C         142.6382  138.9385  166.3370 C.3     1  UNL1        0.0480
     11 C         141.8504  138.1434  163.9096 C.3     1  UNL1        0.0394
     12 C         142.1396  139.0521  162.7518 C.3     1  UNL1        0.0765
     13 C         144.4978  140.1375  162.8577 C.3     1  UNL1        0.0897
     14 N         143.5387  139.1733  162.2247 N.3     1  UNL1       -0.2700
     15 C         143.9788  138.3302  161.0648 C.3     1  UNL1        0.0897
     16 C         138.9722  139.1428  165.0787 C.3     1  UNL1        0.0730
     17 C         138.4871  140.3595  164.3476 C.ar    1  UNL1        0.0825
     18 C         137.9157  140.2267  162.9671 C.ar    1  UNL1        0.1139
     19 N         137.4306  141.4433  162.2359 N.ar    1  UNL1       -0.2394
     20 C         137.5171  142.7927  162.8853 C.ar    1  UNL1        0.1195
     21 C         138.0886  142.9254  164.2658 C.ar    1  UNL1        0.1191
     22 N         138.5736  141.7088  164.9970 N.ar    1  UNL1       -0.2446
@<TRIPOS>BOND
     1    13    14    1
     2    14    15    1
     3    14    12    1
     4    12    11    1
     5    11     1    1
     6     1     2    2
     7     2    16    1
     8    16    17    1
     9    17    18   ar
    10    18    19   ar
    11    19    20   ar
    12    20    21   ar
    13    21    22   ar
    14     2     3    1
    15     3     4   ar
    16     4     5   ar
    17     5     6   ar
    18     6     7    1
    19     6     8   ar
    20     8     9   ar
    21     9    10    1
    22    10     1    1
    23    22    17   ar
    24     9     3   ar
