@<TRIPOS>MOLECULE
*****
 29 32 0 0 0
SMALL
GASTEIGER

@<TRIPOS>ATOM
      1 C         139.1254  139.5029  163.6720 C.ar    1  UNL1        0.0001
      2 C         138.2773  140.4072  162.8277 C.ar    1  UNL1        0.0014
      3 C         138.2952  140.2731  161.3337 C.ar    1  UNL1        0.0199
      4 C         139.1612  139.2348  160.6842 C.ar    1  UNL1        0.1222
      5 C         140.0093  138.3305  161.5286 C.ar    1  UNL1        0.0199
      6 C         139.9914  138.4646  163.0225 C.ar    1  UNL1        0.0014
      7 C         139.0718  139.9051  168.1537 C.ar    1  UNL1       -0.0208
      8 C         138.0462  139.0545  167.4647 C.ar    1  UNL1       -0.0042
      9 C         138.0641  138.9205  165.9708 C.ar    1  UNL1       -0.0003
     10 C         139.1076  139.6370  165.1659 C.ar    1  UNL1       -0.0000
     11 C         140.1331  140.4876  165.8549 C.ar    1  UNL1       -0.0003
     12 C         140.1152  140.6216  167.3488 C.ar    1  UNL1       -0.0042
     13 C         139.0539  140.0391  169.6476 C.3     1  UNL1        0.0437
     14 C         140.3330  139.9401  170.4248 C.3     1  UNL1        0.0768
     15 C         139.9184  143.1742  170.5590 C.3     1  UNL1        0.0173
     16 C         141.2131  142.4612  170.3037 C.3     1  UNL1        0.0576
     17 C         142.5446  143.1095  170.0653 C.3     1  UNL1        0.0174
     18 C         143.5581  142.0236  169.8563 C.3     1  UNL1        0.0187
     19 C         142.8530  140.7041  169.9656 C.3     1  UNL1        0.0721
     20 N         141.4037  140.9746  170.2421 N.3     1  UNL1       -0.2737
     21 S         139.1791  139.1007  159.1904 S.O2    1  UNL1        0.0634
     22 O         140.4895  138.3753  159.2712 O.2     1  UNL1       -0.1528
     23 O         137.8687  139.8261  159.1095 O.2     1  UNL1       -0.1528
     24 N         139.1969  138.9666  157.6965 N.3     1  UNL1       -0.1504
     25 C         138.6487  140.0677  156.8380 C.3     1  UNL1        0.1279
     26 C         138.6666  139.9336  155.3441 C.3     1  UNL1        0.1613
     27 O         139.2327  138.6984  154.7087 O.3     1  UNL1       -0.3507
     28 C         139.7810  137.5973  155.5671 C.3     1  UNL1        0.1613
     29 C         139.7631  137.7314  157.0611 C.3     1  UNL1        0.1279
@<TRIPOS>BOND
     1    16    15    1
     2    16    17    1
     3    17    18    1
     4    18    19    1
     5    19    20    1
     6    20    14    1
     7    14    13    1
     8    13     7    1
     9     7     8   ar
    10     8     9   ar
    11     9    10   ar
    12    10     1    1
    13     1     2   ar
    14     2     3   ar
    15     3     4   ar
    16     4    21    1
    17    21    22    2
    18    21    23    2
    19    21    24    1
    20    24    25    1
    21    25    26    1
    22    26    27    1
    23    27    28    1
    24    28    29    1
    25     4     5   ar
    26     5     6   ar
    27    10    11   ar
    28    11    12   ar
    29    20    16    1
    30    12     7   ar
    31     6     1   ar
    32    29    24    1
@<TRIPOS>MOLECULE
*****
 29 32 0 0 0
SMALL
GASTEIGER

@<TRIPOS>ATOM
      1 C         142.0258  143.9702  162.5252 C.ar    1  UNL1        0.0001
      2 C         142.6796  143.3463  161.3281 C.ar    1  UNL1        0.0014
      3 C         142.3336  143.8256  159.9494 C.ar    1  UNL1        0.0199
      4 C         141.3337  144.9289  159.7680 C.ar    1  UNL1        0.1222
      5 C         140.6798  145.5528  160.9652 C.ar    1  UNL1        0.0199
      6 C         141.0259  145.0735  162.3437 C.ar    1  UNL1        0.0014
      7 C         143.0639  142.5323  166.6609 C.ar    1  UNL1       -0.0208
      8 C         144.1200  143.1536  165.7958 C.ar    1  UNL1       -0.0042
      9 C         143.7740  143.6329  164.4173 C.ar    1  UNL1       -0.0003
     10 C         142.3718  143.4909  163.9038 C.ar    1  UNL1       -0.0000
     11 C         141.3156  142.8696  164.7689 C.ar    1  UNL1       -0.0003
     12 C         141.6617  142.3903  166.1475 C.ar    1  UNL1       -0.0042
     13 C         143.4099  142.0529  168.0396 C.3     1  UNL1        0.0437
     14 C         142.5880  142.4927  169.2148 C.3     1  UNL1        0.0768
     15 C         142.5240  139.3285  170.0104 C.3     1  UNL1        0.0173
     16 C         141.3443  140.2544  169.9819 C.3     1  UNL1        0.0576
     17 C         139.9281  139.8885  170.3140 C.3     1  UNL1        0.0174
     18 C         139.0821  141.1168  170.1536 C.3     1  UNL1        0.0187
     19 C         139.9757  142.2419  169.7223 C.3     1  UNL1        0.0721
     20 N         141.3737  141.7088  169.6162 N.3     1  UNL1       -0.2737
     21 S         140.9877  145.4082  158.3894 S.O2    1  UNL1        0.0634
     22 O         142.3351  146.0577  158.2770 O.2     1  UNL1       -0.1528
     23 O         139.6403  144.7588  158.5018 O.2     1  UNL1       -0.1528
     24 N         140.6416  145.8876  157.0109 N.3     1  UNL1       -0.1504
     25 C         141.4577  145.4403  155.8344 C.3     1  UNL1        0.1279
     26 C         141.1117  145.9196  154.4559 C.3     1  UNL1        0.1613
     27 O         139.9496  146.8463  154.2537 O.3     1  UNL1       -0.3507
     28 C         139.1335  147.2936  155.4301 C.3     1  UNL1        0.1613
     29 C         139.4796  146.8142  156.8087 C.3     1  UNL1        0.1279
@<TRIPOS>BOND
     1    16    15    1
     2    16    17    1
     3    17    18    1
     4    18    19    1
     5    19    20    1
     6    20    14    1
     7    14    13    1
     8    13     7    1
     9     7     8   ar
    10     8     9   ar
    11     9    10   ar
    12    10     1    1
    13     1     2   ar
    14     2     3   ar
    15     3     4   ar
    16     4    21    1
    17    21    22    2
    18    21    23    2
    19    21    24    1
    20    24    25    1
    21    25    26    1
    22    26    27    1
    23    27    28    1
    24    28    29    1
    25     4     5   ar
    26     5     6   ar
    27    10    11   ar
    28    11    12   ar
    29    20    16    1
    30    12     7   ar
    31     6     1   ar
    32    29    24    1
@<TRIPOS>MOLECULE
*****
 29 32 0 0 0
SMALL
GASTEIGER

@<TRIPOS>ATOM
      1 C         141.7027  143.8996  162.2999 C.ar    1  UNL1        0.0001
      2 C         142.4643  143.3467  161.1319 C.ar    1  UNL1        0.0014
      3 C         142.2043  143.8712  159.7508 C.ar    1  UNL1        0.0199
      4 C         141.1826  144.9485  159.5377 C.ar    1  UNL1        0.1222
      5 C         140.4209  145.5014  160.7058 C.ar    1  UNL1        0.0199
      6 C         140.6809  144.9769  162.0868 C.ar    1  UNL1        0.0014
      7 C         142.4827  142.3263  166.4431 C.ar    1  UNL1       -0.0208
      8 C         141.1583  142.9491  166.1144 C.ar    1  UNL1       -0.0042
      9 C         140.8984  143.4736  164.7333 C.ar    1  UNL1       -0.0003
     10 C         141.9627  143.3752  163.6810 C.ar    1  UNL1       -0.0000
     11 C         143.2871  142.7524  164.0097 C.ar    1  UNL1       -0.0003
     12 C         143.5471  142.2279  165.3908 C.ar    1  UNL1       -0.0042
     13 C         142.7428  141.8019  167.8242 C.3     1  UNL1        0.0437
     14 C         142.2005  140.4645  168.2330 C.3     1  UNL1        0.0768
     15 C         139.2308  140.4984  169.5855 C.3     1  UNL1        0.0173
     16 C         139.5758  139.9585  168.2293 C.3     1  UNL1        0.0576
     17 C         138.6163  139.3393  167.2566 C.3     1  UNL1        0.0174
     18 C         139.3884  138.9411  166.0337 C.3     1  UNL1        0.0187
     19 C         140.8250  139.3141  166.2506 C.3     1  UNL1        0.0721
     20 N         140.9408  139.9429  167.6076 N.3     1  UNL1       -0.2737
     21 S         140.9225  145.4730  158.1567 S.O2    1  UNL1        0.0634
     22 O         139.5493  144.8703  158.1864 O.2     1  UNL1       -0.1528
     23 O         142.2957  146.0757  158.1270 O.2     1  UNL1       -0.1528
     24 N         140.6624  145.9974  156.7757 N.3     1  UNL1       -0.1504
     25 C         141.4863  145.5100  155.6208 C.3     1  UNL1        0.1279
     26 C         141.2262  146.0344  154.2398 C.3     1  UNL1        0.1613
     27 O         140.1423  147.0463  154.0136 O.3     1  UNL1       -0.3507
     28 C         139.3185  147.5338  155.1684 C.3     1  UNL1        0.1613
     29 C         139.5785  147.0093  156.5495 C.3     1  UNL1        0.1279
@<TRIPOS>BOND
     1    16    15    1
     2    16    17    1
     3    17    18    1
     4    18    19    1
     5    19    20    1
     6    20    14    1
     7    14    13    1
     8    13     7    1
     9     7     8   ar
    10     8     9   ar
    11     9    10   ar
    12    10     1    1
    13     1     2   ar
    14     2     3   ar
    15     3     4   ar
    16     4    21    1
    17    21    22    2
    18    21    23    2
    19    21    24    1
    20    24    25    1
    21    25    26    1
    22    26    27    1
    23    27    28    1
    24    28    29    1
    25     4     5   ar
    26     5     6   ar
    27    10    11   ar
    28    11    12   ar
    29    20    16    1
    30    12     7   ar
    31     6     1   ar
    32    29    24    1
@<TRIPOS>MOLECULE
*****
 29 32 0 0 0
SMALL
GASTEIGER

@<TRIPOS>ATOM
      1 C         138.6995  140.7052  163.5065 C.ar    1  UNL1        0.0001
      2 C         138.2642  142.0267  162.9460 C.ar    1  UNL1        0.0014
      3 C         138.1049  142.1970  161.4642 C.ar    1  UNL1        0.0199
      4 C         138.3809  141.0458  160.5430 C.ar    1  UNL1        0.1222
      5 C         138.8162  139.7243  161.1036 C.ar    1  UNL1        0.0199
      6 C         138.9754  139.5540  162.5853 C.ar    1  UNL1        0.0014
      7 C         139.1774  140.1943  167.9518 C.ar    1  UNL1       -0.0208
      8 C         139.7531  141.3995  167.2692 C.ar    1  UNL1       -0.0042
      9 C         139.5938  141.5698  165.7875 C.ar    1  UNL1       -0.0003
     10 C         138.8588  140.5348  164.9883 C.ar    1  UNL1       -0.0000
     11 C         138.2831  139.3296  165.6709 C.ar    1  UNL1       -0.0003
     12 C         138.4424  139.1593  167.1526 C.ar    1  UNL1       -0.0042
     13 C         139.3367  140.0239  169.4336 C.3     1  UNL1        0.0437
     14 C         140.7014  139.8236  170.0231 C.3     1  UNL1        0.0768
     15 C         142.9950  140.1116  167.7197 C.3     1  UNL1        0.0173
     16 C         142.7802  141.0476  168.8719 C.3     1  UNL1        0.0576
     17 C         143.5820  142.2804  169.1677 C.3     1  UNL1        0.0174
     18 C         143.0232  142.9099  170.4093 C.3     1  UNL1        0.0187
     19 C         141.8761  142.0661  170.8809 C.3     1  UNL1        0.0721
     20 N         141.7260  140.9152  169.9307 N.3     1  UNL1       -0.2737
     21 S         138.2216  141.2161  159.0612 S.O2    1  UNL1        0.0634
     22 O         138.3062  139.7294  158.8813 O.2     1  UNL1       -0.1528
     23 O         138.1370  142.7029  159.2412 O.2     1  UNL1       -0.1528
     24 N         138.0623  141.3864  157.5795 N.3     1  UNL1       -0.1504
     25 C         138.4397  140.2700  156.6514 C.3     1  UNL1        0.1279
     26 C         138.2804  140.4403  155.1696 C.3     1  UNL1        0.1613
     27 O         137.7438  141.7270  154.6159 O.3     1  UNL1       -0.3507
     28 C         137.3664  142.8433  155.5440 C.3     1  UNL1        0.1613
     29 C         137.5256  142.6730  157.0258 C.3     1  UNL1        0.1279
@<TRIPOS>BOND
     1    16    15    1
     2    16    17    1
     3    17    18    1
     4    18    19    1
     5    19    20    1
     6    20    14    1
     7    14    13    1
     8    13     7    1
     9     7     8   ar
    10     8     9   ar
    11     9    10   ar
    12    10     1    1
    13     1     2   ar
    14     2     3   ar
    15     3     4   ar
    16     4    21    1
    17    21    22    2
    18    21    23    2
    19    21    24    1
    20    24    25    1
    21    25    26    1
    22    26    27    1
    23    27    28    1
    24    28    29    1
    25     4     5   ar
    26     5     6   ar
    27    10    11   ar
    28    11    12   ar
    29    20    16    1
    30    12     7   ar
    31     6     1   ar
    32    29    24    1
@<TRIPOS>MOLECULE
*****
 29 32 0 0 0
SMALL
GASTEIGER

@<TRIPOS>ATOM
      1 C         141.0230  139.0070  162.9836 C.ar    1  UNL1        0.0001
      2 C         139.8408  138.1675  162.5995 C.ar    1  UNL1        0.0014
      3 C         139.4123  138.0876  161.1642 C.ar    1  UNL1        0.0199
      4 C         140.1659  138.8474  160.1131 C.ar    1  UNL1        0.1222
      5 C         141.3481  139.6870  160.4972 C.ar    1  UNL1        0.0199
      6 C         141.7766  139.7668  161.9325 C.ar    1  UNL1        0.0014
      7 C         142.3087  139.2466  167.2894 C.ar    1  UNL1       -0.0208
      8 C         140.9784  139.7999  166.8720 C.ar    1  UNL1       -0.0042
      9 C         140.5499  139.7201  165.4367 C.ar    1  UNL1       -0.0003
     10 C         141.4516  139.0869  164.4189 C.ar    1  UNL1       -0.0000
     11 C         142.7818  138.5335  164.8363 C.ar    1  UNL1       -0.0003
     12 C         143.2104  138.6134  166.2715 C.ar    1  UNL1       -0.0042
     13 C         142.7372  139.3264  168.7247 C.3     1  UNL1        0.0437
     14 C         141.7514  139.7307  169.7804 C.3     1  UNL1        0.0768
     15 C         143.7581  142.3041  169.7553 C.3     1  UNL1        0.0173
     16 C         142.2662  142.3509  169.9035 C.3     1  UNL1        0.0576
     17 C         141.4347  143.5887  170.0661 C.3     1  UNL1        0.0174
     18 C         139.9983  143.1709  170.1781 C.3     1  UNL1        0.0187
     19 C         139.9422  141.6747  170.0847 C.3     1  UNL1        0.0721
     20 N         141.3438  141.1681  169.9150 N.3     1  UNL1       -0.2737
     21 S         139.7374  138.7676  158.6778 S.O2    1  UNL1        0.0634
     22 O         141.0286  138.0881  158.3301 O.2     1  UNL1       -0.1528
     23 O         138.4461  139.4471  159.0256 O.2     1  UNL1       -0.1528
     24 N         139.3088  138.6878  157.2426 N.3     1  UNL1       -0.1504
     25 C         139.5024  137.4156  156.4717 C.3     1  UNL1        0.1279
     26 C         139.0738  137.3358  155.0364 C.3     1  UNL1        0.1613
     27 O         138.4518  138.5281  154.3720 O.3     1  UNL1       -0.3507
     28 C         138.2582  139.8002  155.1429 C.3     1  UNL1        0.1613
     29 C         138.6868  139.8801  156.5782 C.3     1  UNL1        0.1279
@<TRIPOS>BOND
     1    16    15    1
     2    16    17    1
     3    17    18    1
     4    18    19    1
     5    19    20    1
     6    20    14    1
     7    14    13    1
     8    13     7    1
     9     7     8   ar
    10     8     9   ar
    11     9    10   ar
    12    10     1    1
    13     1     2   ar
    14     2     3   ar
    15     3     4   ar
    16     4    21    1
    17    21    22    2
    18    21    23    2
    19    21    24    1
    20    24    25    1
    21    25    26    1
    22    26    27    1
    23    27    28    1
    24    28    29    1
    25     4     5   ar
    26     5     6   ar
    27    10    11   ar
    28    11    12   ar
    29    20    16    1
    30    12     7   ar
    31     6     1   ar
    32    29    24    1
@<TRIPOS>MOLECULE
*****
 29 32 0 0 0
SMALL
GASTEIGER

@<TRIPOS>ATOM
      1 C         141.7342  143.8678  161.9690 C.ar    1  UNL1        0.0001
      2 C         140.7323  144.9537  161.7104 C.ar    1  UNL1        0.0014
      3 C         140.5239  145.4652  160.3157 C.ar    1  UNL1        0.0199
      4 C         141.3175  144.8908  159.1798 C.ar    1  UNL1        0.1222
      5 C         142.3194  143.8049  159.4386 C.ar    1  UNL1        0.0199
      6 C         142.5278  143.2934  160.8331 C.ar    1  UNL1        0.0014
      7 C         142.3592  142.3333  166.1529 C.ar    1  UNL1       -0.0208
      8 C         141.0704  143.0073  165.7860 C.ar    1  UNL1       -0.0042
      9 C         140.8621  143.5189  164.3914 C.ar    1  UNL1       -0.0003
     10 C         141.9425  143.3563  163.3637 C.ar    1  UNL1       -0.0000
     11 C         143.2313  142.6822  163.7306 C.ar    1  UNL1       -0.0003
     12 C         143.4396  142.1707  165.1252 C.ar    1  UNL1       -0.0042
     13 C         142.5675  141.8217  167.5475 C.3     1  UNL1        0.0437
     14 C         142.0563  140.4653  167.9331 C.3     1  UNL1        0.0768
     15 C         142.2769  138.7312  165.1774 C.3     1  UNL1        0.0173
     16 C         141.0122  139.0570  165.9152 C.3     1  UNL1        0.0576
     17 C         139.6269  138.6430  165.5158 C.3     1  UNL1        0.0174
     18 C         138.6692  139.1842  166.5357 C.3     1  UNL1        0.0187
     19 C         139.4628  139.9328  167.5654 C.3     1  UNL1        0.0721
     20 N         140.9108  139.8541  167.1818 N.3     1  UNL1       -0.2737
     21 S         141.1092  145.4023  157.7852 S.O2    1  UNL1        0.0634
     22 O         142.3782  146.1955  157.8866 O.2     1  UNL1       -0.1528
     23 O         139.8401  144.6091  157.6839 O.2     1  UNL1       -0.1528
     24 N         140.9008  145.9138  156.3906 N.3     1  UNL1       -0.1504
     25 C         139.8391  146.9378  156.1181 C.3     1  UNL1        0.1279
     26 C         139.6307  147.4493  154.7235 C.3     1  UNL1        0.1613
     27 O         140.4841  146.9368  153.6014 O.3     1  UNL1       -0.3507
     28 C         141.5459  145.9129  153.8739 C.3     1  UNL1        0.1613
     29 C         141.7542  145.4014  155.2685 C.3     1  UNL1        0.1279
@<TRIPOS>BOND
     1    16    15    1
     2    16    17    1
     3    17    18    1
     4    18    19    1
     5    19    20    1
     6    20    14    1
     7    14    13    1
     8    13     7    1
     9     7     8   ar
    10     8     9   ar
    11     9    10   ar
    12    10     1    1
    13     1     2   ar
    14     2     3   ar
    15     3     4   ar
    16     4    21    1
    17    21    22    2
    18    21    23    2
    19    21    24    1
    20    24    25    1
    21    25    26    1
    22    26    27    1
    23    27    28    1
    24    28    29    1
    25     4     5   ar
    26     5     6   ar
    27    10    11   ar
    28    11    12   ar
    29    20    16    1
    30    12     7   ar
    31     6     1   ar
    32    29    24    1
@<TRIPOS>MOLECULE
*****
 29 32 0 0 0
SMALL
GASTEIGER

@<TRIPOS>ATOM
      1 C         140.6212  138.9199  163.1146 C.ar    1  UNL1        0.0001
      2 C         142.0204  138.4627  162.8264 C.ar    1  UNL1        0.0014
      3 C         142.4509  138.2111  161.4117 C.ar    1  UNL1        0.0199
      4 C         141.4821  138.4168  160.2851 C.ar    1  UNL1        0.1222
      5 C         140.0828  138.8741  160.5733 C.ar    1  UNL1        0.0199
      6 C         139.6524  139.1257  161.9880 C.ar    1  UNL1        0.0014
      7 C         139.3297  139.6746  167.3587 C.ar    1  UNL1       -0.0208
      8 C         138.3440  139.1509  166.3566 C.ar    1  UNL1       -0.0042
      9 C         138.7745  138.8994  164.9420 C.ar    1  UNL1       -0.0003
     10 C         140.1907  139.1715  164.5293 C.ar    1  UNL1       -0.0000
     11 C         141.1764  139.6952  165.5313 C.ar    1  UNL1       -0.0003
     12 C         140.7459  139.9468  166.9460 C.ar    1  UNL1       -0.0042
     13 C         138.8992  139.9262  168.7734 C.3     1  UNL1        0.0437
     14 C         139.9282  140.1325  169.8451 C.3     1  UNL1        0.0768
     15 C         143.1435  140.5921  170.1616 C.3     1  UNL1        0.0173
     16 C         142.0990  141.6678  170.1202 C.3     1  UNL1        0.0576
     17 C         142.3490  143.1437  170.2169 C.3     1  UNL1        0.0174
     18 C         141.0256  143.8446  170.1313 C.3     1  UNL1        0.0187
     19 C         139.9576  142.8018  169.9815 C.3     1  UNL1        0.0721
     20 N         140.6211  141.4566  169.9747 N.3     1  UNL1       -0.2737
     21 S         141.9125  138.1653  158.8704 S.O2    1  UNL1        0.0634
     22 O         143.2391  137.6672  159.3626 O.2     1  UNL1       -0.1528
     23 O         140.5860  138.6633  158.3783 O.2     1  UNL1       -0.1528
     24 N         142.3430  137.9137  157.4557 N.3     1  UNL1       -0.1504
     25 C         142.1575  138.9778  156.4148 C.3     1  UNL1        0.1279
     26 C         142.5880  138.7263  155.0001 C.3     1  UNL1        0.1613
     27 O         143.2038  137.4106  154.6262 O.3     1  UNL1       -0.3507
     28 C         143.3893  136.3465  155.6670 C.3     1  UNL1        0.1613
     29 C         142.9588  136.5981  157.0818 C.3     1  UNL1        0.1279
@<TRIPOS>BOND
     1    16    15    1
     2    16    17    1
     3    17    18    1
     4    18    19    1
     5    19    20    1
     6    20    14    1
     7    14    13    1
     8    13     7    1
     9     7     8   ar
    10     8     9   ar
    11     9    10   ar
    12    10     1    1
    13     1     2   ar
    14     2     3   ar
    15     3     4   ar
    16     4    21    1
    17    21    22    2
    18    21    23    2
    19    21    24    1
    20    24    25    1
    21    25    26    1
    22    26    27    1
    23    27    28    1
    24    28    29    1
    25     4     5   ar
    26     5     6   ar
    27    10    11   ar
    28    11    12   ar
    29    20    16    1
    30    12     7   ar
    31     6     1   ar
    32    29    24    1
@<TRIPOS>MOLECULE
*****
 29 32 0 0 0
SMALL
GASTEIGER

@<TRIPOS>ATOM
      1 C         142.2550  140.6445  162.7181 C.ar    1  UNL1        0.0001
      2 C         141.9204  141.7976  161.8189 C.ar    1  UNL1        0.0014
      3 C         142.5964  141.9304  160.4864 C.ar    1  UNL1        0.0199
      4 C         143.6071  140.9101  160.0532 C.ar    1  UNL1        0.1222
      5 C         143.9416  139.7570  160.9525 C.ar    1  UNL1        0.0199
      6 C         143.2656  139.6243  162.2849 C.ar    1  UNL1        0.0014
      7 C         140.2268  140.2463  166.7153 C.ar    1  UNL1       -0.0208
      8 C         140.0074  141.4740  165.8820 C.ar    1  UNL1       -0.0042
      9 C         140.6834  141.6068  164.5496 C.ar    1  UNL1       -0.0003
     10 C         141.5789  140.5117  164.0505 C.ar    1  UNL1       -0.0000
     11 C         141.7983  139.2840  164.8838 C.ar    1  UNL1       -0.0003
     12 C         141.1223  139.1513  166.2162 C.ar    1  UNL1       -0.0042
     13 C         139.5508  140.1135  168.0478 C.3     1  UNL1        0.0437
     14 C         140.3718  140.0291  169.3003 C.3     1  UNL1        0.0768
     15 C         139.8950  143.0369  170.4727 C.3     1  UNL1        0.0173
     16 C         141.2184  142.4326  170.1076 C.3     1  UNL1        0.0576
     17 C         142.5549  143.1046  170.2173 C.3     1  UNL1        0.0174
     18 C         143.6002  142.1373  169.7462 C.3     1  UNL1        0.0187
     19 C         142.9095  140.8674  169.3453 C.3     1  UNL1        0.0721
     20 N         141.4375  141.0500  169.5687 N.3     1  UNL1       -0.2737
     21 S         144.2831  141.0428  158.7208 S.O2    1  UNL1        0.0634
     22 O         143.9275  139.6216  158.3988 O.2     1  UNL1       -0.1528
     23 O         144.6387  142.4640  159.0429 O.2     1  UNL1       -0.1528
     24 N         144.9592  141.1756  157.3885 N.3     1  UNL1       -0.1504
     25 C         144.6670  140.1883  156.2975 C.3     1  UNL1        0.1279
     26 C         145.3431  140.3210  154.9651 C.3     1  UNL1        0.1613
     27 O         146.3113  141.4410  154.7236 O.3     1  UNL1       -0.3507
     28 C         146.6034  142.4282  155.8144 C.3     1  UNL1        0.1613
     29 C         145.9273  142.2955  157.1469 C.3     1  UNL1        0.1279
@<TRIPOS>BOND
     1    16    15    1
     2    16    17    1
     3    17    18    1
     4    18    19    1
     5    19    20    1
     6    20    14    1
     7    14    13    1
     8    13     7    1
     9     7     8   ar
    10     8     9   ar
    11     9    10   ar
    12    10     1    1
    13     1     2   ar
    14     2     3   ar
    15     3     4   ar
    16     4    21    1
    17    21    22    2
    18    21    23    2
    19    21    24    1
    20    24    25    1
    21    25    26    1
    22    26    27    1
    23    27    28    1
    24    28    29    1
    25     4     5   ar
    26     5     6   ar
    27    10    11   ar
    28    11    12   ar
    29    20    16    1
    30    12     7   ar
    31     6     1   ar
    32    29    24    1
@<TRIPOS>MOLECULE
*****
 29 32 0 0 0
SMALL
GASTEIGER

@<TRIPOS>ATOM
      1 C         141.4140  139.2693  162.8829 C.ar    1  UNL1        0.0001
      2 C         141.8034  138.3468  163.9997 C.ar    1  UNL1        0.0014
      3 C         141.6215  138.7765  165.4254 C.ar    1  UNL1        0.0199
      4 C         141.0502  140.1287  165.7340 C.ar    1  UNL1        0.1222
      5 C         140.6608  141.0512  164.6171 C.ar    1  UNL1        0.0199
      6 C         140.8427  140.6214  163.1915 C.ar    1  UNL1        0.0014
      7 C         141.9598  137.9802  158.6061 C.ar    1  UNL1       -0.0208
      8 C         142.9390  137.5391  159.6532 C.ar    1  UNL1       -0.0042
      9 C         142.7571  137.9688  161.0787 C.ar    1  UNL1       -0.0003
     10 C         141.5959  138.8396  161.4572 C.ar    1  UNL1       -0.0000
     11 C         140.6166  139.2807  160.4102 C.ar    1  UNL1       -0.0003
     12 C         140.7985  138.8510  158.9846 C.ar    1  UNL1       -0.0042
     13 C         142.1417  137.5505  157.1805 C.3     1  UNL1        0.0437
     14 C         143.1051  136.4507  156.8458 C.3     1  UNL1        0.0768
     15 C         144.1885  133.5355  157.8342 C.3     1  UNL1        0.0173
     16 C         143.0900  133.7777  156.8420 C.3     1  UNL1        0.0576
     17 C         142.2966  132.7225  156.1299 C.3     1  UNL1        0.0174
     18 C         141.3082  133.4104  155.2354 C.3     1  UNL1        0.0187
     19 C         141.4908  134.8908  155.3947 C.3     1  UNL1        0.0721
     20 N         142.5920  135.1177  156.3877 N.3     1  UNL1       -0.2737
     21 S         140.8683  140.5584  167.1596 S.O2    1  UNL1        0.0634
     22 O         139.7255  141.4387  166.7484 O.2     1  UNL1       -0.1528
     23 O         142.0110  139.6780  167.5708 O.2     1  UNL1       -0.1528
     24 N         140.6864  140.9881  168.5851 N.3     1  UNL1       -0.1504
     25 C         140.4021  142.4259  168.9046 C.3     1  UNL1        0.1279
     26 C         140.2202  142.8556  170.3302 C.3     1  UNL1        0.1613
     27 O         140.3225  141.8476  171.4363 O.3     1  UNL1       -0.3507
     28 C         140.6068  140.4099  171.1168 C.3     1  UNL1        0.1613
     29 C         140.7887  139.9801  169.6912 C.3     1  UNL1        0.1279
@<TRIPOS>BOND
     1    16    15    1
     2    16    17    1
     3    17    18    1
     4    18    19    1
     5    19    20    1
     6    20    14    1
     7    14    13    1
     8    13     7    1
     9     7     8   ar
    10     8     9   ar
    11     9    10   ar
    12    10     1    1
    13     1     2   ar
    14     2     3   ar
    15     3     4   ar
    16     4    21    1
    17    21    22    2
    18    21    23    2
    19    21    24    1
    20    24    25    1
    21    25    26    1
    22    26    27    1
    23    27    28    1
    24    28    29    1
    25     4     5   ar
    26     5     6   ar
    27    10    11   ar
    28    11    12   ar
    29    20    16    1
    30    12     7   ar
    31     6     1   ar
    32    29    24    1
