@<TRIPOS>MOLECULE
*****
 59 65 0 0 0
SMALL
GASTEIGER

@<TRIPOS>ATOM
      1 C         142.5427  138.7241  161.0289 C.3     1  UNL1        0.1894
      2 C         142.8218  137.7533  159.9201 C.3     1  UNL1        0.0746
      3 C         142.1632  138.2695  158.6752 C.3     1  UNL1        0.1555
      4 N         141.4770  139.5595  159.0148 N.am    1  UNL1       -0.2678
      5 C         140.6937  140.4178  158.0662 C.2     1  UNL1        0.2440
      6 O         140.5438  140.0062  156.6316 O.2     1  UNL1       -0.2731
      7 C         141.7115  139.8404  160.4694 C.3     1  UNL1        0.1373
      8 C         142.1867  137.6115  157.3275 C.2     1  UNL1        0.2409
      9 O         143.3875  137.7600  156.4411 O.2     1  UNL1       -0.2733
     10 N         141.0092  136.8049  156.8661 N.am    1  UNL1       -0.2985
     11 H         140.2209  136.7074  157.4478 H       1  UNL1        0.1498
     12 C         141.0326  136.1468  155.5184 C.3     1  UNL1        0.1271
     13 C         141.3724  135.1688  154.4331 C.3     1  UNL1        0.0290
     14 C         141.9516  134.9968  155.8059 C.3     1  UNL1        0.0270
     15 C         140.1217  137.0684  154.7626 C.2     1  UNL1        0.2564
     16 O         140.6881  138.0168  153.7479 O.2     1  UNL1       -0.2718
     17 N         138.6445  137.0415  155.0217 N.am    1  UNL1       -0.1875
     18 H         138.2728  136.4190  155.6877 H       1  UNL1        0.1762
     19 S         137.7336  137.9630  154.2660 S.O2    1  UNL1        0.0543
     20 O         137.6692  136.9752  153.1391 O.2     1  UNL1       -0.1545
     21 O         137.7980  138.9508  155.3930 O.2     1  UNL1       -0.1545
     22 C         136.8228  138.8845  153.5103 C.3     1  UNL1        0.1490
     23 C         136.4293  139.5605  152.2305 C.3     1  UNL1        0.0273
     24 C         135.6385  139.8046  153.4814 C.3     1  UNL1        0.0273
     25 C         142.8167  134.2335  156.7647 C.3     1  UNL1        0.0021
     26 C         143.6076  134.1764  158.0379 C.3     1  UNL1        0.0001
     27 C         143.5239  132.9687  157.1521 C.3     1  UNL1        0.0001
     28 O         143.0122  138.6004  162.4481 O.3     1  UNL1       -0.4621
     29 C         140.0897  139.0847  165.8355 C.ar    1  UNL1        0.1579
     30 C         139.9576  137.9272  164.8907 C.ar    1  UNL1        0.1388
     31 N         140.9318  137.7657  163.7616 N.ar    1  UNL1       -0.2069
     32 C         142.0380  138.7618  163.5772 C.ar    1  UNL1        0.2249
     33 C         142.1701  139.9194  164.5220 C.ar    1  UNL1        0.0570
     34 C         143.2763  140.9155  164.3377 C.ar    1  UNL1        0.0161
     35 C         143.4084  142.0730  165.2825 C.ar    1  UNL1        0.0578
     36 CL        144.5146  143.0692  165.0982 Cl      1  UNL1       -0.0822
     37 C         142.4342  142.2345  166.4116 C.ar    1  UNL1        0.0115
     38 C         141.3280  141.2384  166.5959 C.ar    1  UNL1        0.0041
     39 C         141.1959  140.0809  165.6512 C.ar    1  UNL1        0.0401
     40 C         137.7703  138.5862  166.8946 C.3     1  UNL1        0.2525
     41 O         139.1155  139.2461  166.9646 O.3     1  UNL1       -0.4699
     42 C         140.0603  141.6877  158.5522 C.3     1  UNL1        0.1512
     43 C         140.6564  143.0131  158.1806 C.3     1  UNL1        0.0270
     44 C         142.1420  143.2108  158.2413 C.3     1  UNL1        0.0021
     45 C         142.7380  144.5362  157.8698 C.3     1  UNL1        0.0001
     46 C         141.8484  145.6639  157.4375 C.3     1  UNL1        0.0000
     47 C         140.3628  145.4662  157.3768 C.3     1  UNL1        0.0001
     48 C         139.7667  144.1408  157.7484 C.3     1  UNL1        0.0021
     49 N         138.8309  141.6321  159.4098 N.am    1  UNL1       -0.2640
     50 C         138.8222  142.3008  160.7524 C.2     1  UNL1        0.4021
     51 O         140.0430  143.0251  161.2375 O.2     1  UNL1       -0.2264
     52 H         138.0297  141.1568  159.0914 H       1  UNL1        0.1532
     53 O         137.5929  142.2453  161.6101 O.3     1  UNL1       -0.4295
     54 C         137.7084  141.9002  163.0652 C.3     1  UNL1        0.2645
     55 C         137.7595  140.4636  163.4936 C.3     1  UNL1        0.0567
     56 C         137.7729  142.9918  164.0921 C.3     1  UNL1        0.4342
     57 F         137.8374  144.0833  165.1189 F       1  UNL1       -0.1664
     58 F         137.2465  143.9706  163.0847 F       1  UNL1       -0.1664
     59 F         138.2993  142.0129  165.0994 F       1  UNL1       -0.1664
@<TRIPOS>BOND
     1    40    41    1
     2    41    29    1
     3    29    30   ar
     4    30    31   ar
     5    31    32   ar
     6    32    28    1
     7     1    28    1
     8     1     2    1
     9     2     3    1
    10     3     8    1
    11     8     9    2
    12     8    10   am
    13    12    10    1
    14    12    15    1
    15    15    16    2
    16    15    17   am
    17    17    19    1
    18    19    20    2
    19    19    21    2
    20    19    22    1
    21    22    23    1
    22    23    24    1
    23    12    13    1
    24    13    14    1
    25    14    25    1
    26    25    26    1
    27    26    27    1
    28     3     4    1
    29     4     5   am
    30     5     6    2
    31     5    42    1
    32    42    49    1
    33    49    50   am
    34    50    51    2
    35    50    53    1
    36    53    54    1
    37    54    55    1
    38    54    56    1
    39    56    57    1
    40    56    58    1
    41    56    59    1
    42    42    43    1
    43    43    44    1
    44    44    45    1
    45    45    46    1
    46    46    47    1
    47    47    48    1
    48     4     7    1
    49    32    33   ar
    50    33    34   ar
    51    34    35   ar
    52    35    36    1
    53    35    37   ar
    54    37    38   ar
    55    38    39   ar
    56    39    29   ar
    57     7     1    1
    58    39    33   ar
    59    14    12    1
    60    27    25    1
    61    48    43    1
    62    24    22    1
    63    10    11    1
    64    17    18    1
    65    49    52    1
@<TRIPOS>MOLECULE
*****
 59 65 0 0 0
SMALL
GASTEIGER

@<TRIPOS>ATOM
      1 C         142.6297  138.2859  160.3302 C.3     1  UNL1        0.1894
      2 C         142.7478  137.4291  159.1047 C.3     1  UNL1        0.0746
      3 C         141.9679  138.0845  158.0038 C.3     1  UNL1        0.1555
      4 N         141.3676  139.3466  158.5489 N.am    1  UNL1       -0.2678
      5 C         140.5091  140.3142  157.7896 C.2     1  UNL1        0.2440
      6 O         140.1822  140.0560  156.3486 O.2     1  UNL1       -0.2731
      7 C         141.7767  139.4710  159.9867 C.3     1  UNL1        0.1373
      8 C         141.8150  137.5686  156.6037 C.2     1  UNL1        0.2409
      9 O         142.7990  137.9696  155.5450 O.2     1  UNL1       -0.2733
     10 N         140.6780  136.6517  156.2622 N.am    1  UNL1       -0.2985
     11 H         140.0321  136.3885  156.9570 H       1  UNL1        0.1498
     12 C         140.5251  136.1358  154.8620 C.3     1  UNL1        0.1271
     13 C         140.7142  135.2743  153.6488 C.3     1  UNL1        0.0290
     14 C         141.4567  134.9614  154.9140 C.3     1  UNL1        0.0270
     15 C         139.5404  137.1312  154.3237 C.2     1  UNL1        0.2564
     16 O         139.9165  138.0074  153.1658 O.2     1  UNL1       -0.2718
     17 N         138.1796  137.2503  154.9434 N.am    1  UNL1       -0.1875
     18 H         137.9327  136.6752  155.7034 H       1  UNL1        0.1762
     19 S         137.1949  138.2456  154.4052 S.O2    1  UNL1        0.0543
     20 O         136.8417  137.2974  153.2979 O.2     1  UNL1       -0.1545
     21 O         137.5481  139.1938  155.5125 O.2     1  UNL1       -0.1545
     22 C         136.2102  139.2409  153.8669 C.3     1  UNL1        0.1490
     23 C         135.7291  140.1184  152.7496 C.3     1  UNL1        0.0273
     24 C         134.9858  140.0873  154.0521 C.3     1  UNL1        0.0273
     25 C         142.4233  134.1026  155.6745 C.3     1  UNL1        0.0021
     26 C         143.5401  133.1014  155.6866 C.3     1  UNL1        0.0001
     27 C         142.9805  133.6165  156.9796 C.3     1  UNL1        0.0001
     28 O         143.2547  138.0068  161.6649 O.3     1  UNL1       -0.4621
     29 C         143.6731  141.3126  164.6892 C.ar    1  UNL1        0.1579
     30 C         144.6362  141.2182  163.5432 C.ar    1  UNL1        0.1388
     31 N         144.4968  140.1163  162.5351 N.ar    1  UNL1       -0.2069
     32 C         143.3942  139.1087  162.6730 C.ar    1  UNL1        0.2249
     33 C         142.4309  139.2031  163.8190 C.ar    1  UNL1        0.0570
     34 C         141.3283  138.1955  163.9569 C.ar    1  UNL1        0.0161
     35 C         140.3652  138.2899  165.1029 C.ar    1  UNL1        0.0578
     36 CL        139.2625  137.2824  165.2409 Cl      1  UNL1       -0.0822
     37 C         140.5046  139.3919  166.1110 C.ar    1  UNL1        0.0115
     38 C         141.6072  140.3994  165.9731 C.ar    1  UNL1        0.0041
     39 C         142.5704  140.3050  164.8271 C.ar    1  UNL1        0.0401
     40 C         144.5691  143.6612  165.3459 C.3     1  UNL1        0.2525
     41 O         143.8125  142.4146  165.6973 O.3     1  UNL1       -0.4699
     42 C         139.9775  141.5401  158.4712 C.3     1  UNL1        0.1512
     43 C         140.6720  142.8577  158.2936 C.3     1  UNL1        0.0270
     44 C         142.1675  142.9093  158.1897 C.3     1  UNL1        0.0021
     45 C         142.8620  144.2269  158.0122 C.3     1  UNL1        0.0001
     46 C         142.0610  145.4930  157.9384 C.3     1  UNL1        0.0000
     47 C         140.5655  145.4414  158.0423 C.3     1  UNL1        0.0001
     48 C         139.8710  144.1238  158.2199 C.3     1  UNL1        0.0021
     49 N         138.7514  141.4483  159.3304 N.am    1  UNL1       -0.2640
     50 C         138.8145  141.8540  160.7731 C.2     1  UNL1        0.4021
     51 O         140.1038  142.3515  161.3566 O.2     1  UNL1       -0.2264
     52 H         137.9053  141.1218  158.9474 H       1  UNL1        0.1532
     53 O         137.5885  141.7623  161.6324 O.3     1  UNL1       -0.4295
     54 C         137.7237  141.5815  163.1153 C.3     1  UNL1        0.2645
     55 C         137.8660  140.2046  163.6931 C.3     1  UNL1        0.0567
     56 C         137.7165  142.7776  164.0204 C.3     1  UNL1        0.4342
     57 F         137.7093  143.9737  164.9255 F       1  UNL1       -0.1664
     58 F         137.3011  143.6458  162.8698 F       1  UNL1       -0.1664
     59 F         138.1318  141.9094  165.1709 F       1  UNL1       -0.1664
@<TRIPOS>BOND
     1    40    41    1
     2    41    29    1
     3    29    30   ar
     4    30    31   ar
     5    31    32   ar
     6    32    28    1
     7     1    28    1
     8     1     2    1
     9     2     3    1
    10     3     8    1
    11     8     9    2
    12     8    10   am
    13    12    10    1
    14    12    15    1
    15    15    16    2
    16    15    17   am
    17    17    19    1
    18    19    20    2
    19    19    21    2
    20    19    22    1
    21    22    23    1
    22    23    24    1
    23    12    13    1
    24    13    14    1
    25    14    25    1
    26    25    26    1
    27    26    27    1
    28     3     4    1
    29     4     5   am
    30     5     6    2
    31     5    42    1
    32    42    49    1
    33    49    50   am
    34    50    51    2
    35    50    53    1
    36    53    54    1
    37    54    55    1
    38    54    56    1
    39    56    57    1
    40    56    58    1
    41    56    59    1
    42    42    43    1
    43    43    44    1
    44    44    45    1
    45    45    46    1
    46    46    47    1
    47    47    48    1
    48     4     7    1
    49    32    33   ar
    50    33    34   ar
    51    34    35   ar
    52    35    36    1
    53    35    37   ar
    54    37    38   ar
    55    38    39   ar
    56    39    29   ar
    57     7     1    1
    58    39    33   ar
    59    14    12    1
    60    27    25    1
    61    48    43    1
    62    24    22    1
    63    10    11    1
    64    17    18    1
    65    49    52    1
@<TRIPOS>MOLECULE
*****
 59 65 0 0 0
SMALL
GASTEIGER

@<TRIPOS>ATOM
      1 C         141.2498  138.4884  160.0023 C.3     1  UNL1        0.1894
      2 C         140.1666  138.5786  158.9686 C.3     1  UNL1        0.0746
      3 C         140.5379  139.6632  158.0014 C.3     1  UNL1        0.1555
      4 N         141.8507  140.2434  158.4374 N.am    1  UNL1       -0.2678
      5 C         142.5932  141.3547  157.7562 C.2     1  UNL1        0.2440
      6 O         142.0264  141.9884  156.5205 O.2     1  UNL1       -0.2731
      7 C         142.2906  139.5173  159.6740 C.3     1  UNL1        0.1373
      8 C         139.7372  140.0923  156.8078 C.2     1  UNL1        0.2409
      9 O         138.8933  141.3304  156.8766 O.2     1  UNL1       -0.2733
     10 N         139.7804  139.2833  155.5454 N.am    1  UNL1       -0.2985
     11 H         140.3343  138.4707  155.5003 H       1  UNL1        0.1498
     12 C         138.9797  139.7124  154.3519 C.3     1  UNL1        0.1271
     13 C         138.6595  140.2472  152.9875 C.3     1  UNL1        0.0290
     14 C         140.0855  140.1656  153.4455 C.3     1  UNL1        0.0270
     15 C         137.5956  139.4082  154.8437 C.2     1  UNL1        0.2564
     16 O         137.1868  137.9884  155.1025 O.2     1  UNL1       -0.2718
     17 N         136.6203  140.5239  155.0767 N.am    1  UNL1       -0.1875
     18 H         136.8886  141.4557  154.9068 H       1  UNL1        0.1762
     19 S         135.2363  140.2197  155.5685 S.O2    1  UNL1        0.0543
     20 O         134.7495  140.1442  154.1518 O.2     1  UNL1       -0.1545
     21 O         135.7232  140.2952  156.9853 O.2     1  UNL1       -0.1545
     22 C         133.8523  139.9155  156.0603 C.3     1  UNL1        0.1490
     23 C         132.8669  138.9529  156.6538 C.3     1  UNL1        0.0273
     24 C         132.4404  140.3513  156.3186 C.3     1  UNL1        0.0273
     25 C         141.5474  140.3802  153.1867 C.3     1  UNL1        0.0021
     26 C         142.7979  141.1840  153.3874 C.3     1  UNL1        0.0001
     27 C         142.8289  139.9481  152.5378 C.3     1  UNL1        0.0001
     28 O         141.2858  137.5364  161.1610 O.3     1  UNL1       -0.4621
     29 C         139.4432  138.7097  165.0952 C.ar    1  UNL1        0.1579
     30 C         138.5880  138.1219  164.0121 C.ar    1  UNL1        0.1388
     31 N         139.2022  137.7309  162.7007 N.ar    1  UNL1       -0.2069
     32 C         140.6716  137.9275  162.4724 C.ar    1  UNL1        0.2249
     33 C         141.5269  138.5153  163.5555 C.ar    1  UNL1        0.0570
     34 C         142.9963  138.7120  163.3272 C.ar    1  UNL1        0.0161
     35 C         143.8514  139.2997  164.4103 C.ar    1  UNL1        0.0578
     36 CL        145.3209  139.4964  164.1821 Cl      1  UNL1       -0.0822
     37 C         143.2372  139.6908  165.7217 C.ar    1  UNL1        0.0115
     38 C         141.7678  139.4941  165.9500 C.ar    1  UNL1        0.0041
     39 C         140.9126  138.9064  164.8669 C.ar    1  UNL1        0.0401
     40 C         137.6270  138.3654  166.9208 C.3     1  UNL1        0.2525
     41 O         138.8290  139.1008  166.4066 O.3     1  UNL1       -0.4699
     42 C         143.9025  141.8322  158.3109 C.3     1  UNL1        0.1512
     43 C         145.1246  141.8474  157.4412 C.3     1  UNL1        0.0270
     44 C         146.2665  142.7636  157.7681 C.3     1  UNL1        0.0021
     45 C         147.4885  142.7788  156.8985 C.3     1  UNL1        0.0001
     46 C         147.5688  141.8779  155.7019 C.3     1  UNL1        0.0000
     47 C         146.4270  140.9617  155.3749 C.3     1  UNL1        0.0001
     48 C         145.2049  140.9465  156.2446 C.3     1  UNL1        0.0021
     49 N         143.9898  142.2945  159.7352 N.am    1  UNL1       -0.2640
     50 C         143.2554  143.5282  160.1695 C.2     1  UNL1        0.4021
     51 O         142.4338  144.2995  159.1796 O.2     1  UNL1       -0.2264
     52 H         144.5290  141.7882  160.3849 H       1  UNL1        0.1532
     53 O         143.3425  143.9906  161.5938 O.3     1  UNL1       -0.4295
     54 C         143.0812  143.0264  162.7128 C.3     1  UNL1        0.2645
     55 C         141.8454  142.1765  162.6971 C.3     1  UNL1        0.0567
     56 C         144.0557  142.9123  163.8474 C.3     1  UNL1        0.4342
     57 F         145.0301  142.7981  164.9819 F       1  UNL1       -0.1664
     58 F         145.1480  142.5769  162.8755 F       1  UNL1       -0.1664
     59 F         142.9634  143.2476  164.8192 F       1  UNL1       -0.1664
@<TRIPOS>BOND
     1    40    41    1
     2    41    29    1
     3    29    30   ar
     4    30    31   ar
     5    31    32   ar
     6    32    28    1
     7     1    28    1
     8     1     2    1
     9     2     3    1
    10     3     8    1
    11     8     9    2
    12     8    10   am
    13    12    10    1
    14    12    15    1
    15    15    16    2
    16    15    17   am
    17    17    19    1
    18    19    20    2
    19    19    21    2
    20    19    22    1
    21    22    23    1
    22    23    24    1
    23    12    13    1
    24    13    14    1
    25    14    25    1
    26    25    26    1
    27    26    27    1
    28     3     4    1
    29     4     5   am
    30     5     6    2
    31     5    42    1
    32    42    49    1
    33    49    50   am
    34    50    51    2
    35    50    53    1
    36    53    54    1
    37    54    55    1
    38    54    56    1
    39    56    57    1
    40    56    58    1
    41    56    59    1
    42    42    43    1
    43    43    44    1
    44    44    45    1
    45    45    46    1
    46    46    47    1
    47    47    48    1
    48     4     7    1
    49    32    33   ar
    50    33    34   ar
    51    34    35   ar
    52    35    36    1
    53    35    37   ar
    54    37    38   ar
    55    38    39   ar
    56    39    29   ar
    57     7     1    1
    58    39    33   ar
    59    14    12    1
    60    27    25    1
    61    48    43    1
    62    24    22    1
    63    10    11    1
    64    17    18    1
    65    49    52    1
@<TRIPOS>MOLECULE
*****
 59 65 0 0 0
SMALL
GASTEIGER

@<TRIPOS>ATOM
      1 C         142.1477  139.1520  160.7817 C.3     1  UNL1        0.1894
      2 C         142.2363  138.0495  159.7685 C.3     1  UNL1        0.0746
      3 C         141.5507  138.5132  158.5176 C.3     1  UNL1        0.1555
      4 N         141.0383  139.9024  158.7577 N.am    1  UNL1       -0.2678
      5 C         140.2886  140.7483  157.7716 C.2     1  UNL1        0.2440
      6 O         139.9906  140.2165  156.4011 O.2     1  UNL1       -0.2731
      7 C         141.4073  140.2972  160.1570 C.3     1  UNL1        0.1373
      8 C         141.4034  137.7260  157.2493 C.2     1  UNL1        0.2409
      9 O         140.0533  137.2246  156.8303 O.2     1  UNL1       -0.2733
     10 N         142.6063  137.4404  156.3998 N.am    1  UNL1       -0.2985
     11 H         143.4925  137.7695  156.6748 H       1  UNL1        0.1498
     12 C         142.4589  136.6532  155.1315 C.3     1  UNL1        0.1271
     13 C         142.2706  136.3499  153.6747 C.3     1  UNL1        0.0290
     14 C         142.2896  137.7730  154.1481 C.3     1  UNL1        0.0270
     15 C         142.5771  135.2599  155.6745 C.2     1  UNL1        0.2564
     16 O         141.3877  134.3460  155.6601 O.2     1  UNL1       -0.2718
     17 N         143.8846  134.7805  156.2318 N.am    1  UNL1       -0.1875
     18 H         144.6652  135.3803  156.2412 H       1  UNL1        0.1762
     19 S         144.0027  133.3872  156.7747 S.O2    1  UNL1        0.0543
     20 O         144.2236  132.8648  155.3861 O.2     1  UNL1       -0.1545
     21 O         143.7819  133.9096  158.1634 O.2     1  UNL1       -0.1545
     22 C         144.1208  131.9939  157.3177 C.3     1  UNL1        0.1490
     23 C         144.9077  130.9471  158.0489 C.3     1  UNL1        0.0273
     24 C         143.5384  130.6275  157.5267 C.3     1  UNL1        0.0273
     25 C         142.2029  139.2414  153.8537 C.3     1  UNL1        0.0021
     26 C         142.6457  140.6488  154.1239 C.3     1  UNL1        0.0001
     27 C         141.6099  140.3770  153.0735 C.3     1  UNL1        0.0001
     28 O         142.7020  139.1157  162.1750 O.3     1  UNL1       -0.4621
     29 C         139.9215  139.2983  165.7085 C.ar    1  UNL1        0.1579
     30 C         140.1602  137.9933  165.0086 C.ar    1  UNL1        0.1388
     31 N         141.0871  137.9324  163.8308 N.ar    1  UNL1       -0.2069
     32 C         141.7752  139.1766  163.3528 C.ar    1  UNL1        0.2249
     33 C         141.5365  140.4817  164.0527 C.ar    1  UNL1        0.0570
     34 C         142.2246  141.7259  163.5747 C.ar    1  UNL1        0.0161
     35 C         141.9859  143.0309  164.2746 C.ar    1  UNL1        0.0578
     36 CL        142.6740  144.2752  163.7967 Cl      1  UNL1       -0.0822
     37 C         141.0590  143.0918  165.4524 C.ar    1  UNL1        0.0115
     38 C         140.3709  141.8476  165.9304 C.ar    1  UNL1        0.0041
     39 C         140.6096  140.5426  165.2305 C.ar    1  UNL1        0.0401
     40 C         137.7434  138.5321  166.8995 C.3     1  UNL1        0.2525
     41 O         138.9946  139.3592  166.8863 O.3     1  UNL1       -0.4699
     42 C         139.8370  142.1261  158.1560 C.3     1  UNL1        0.1512
     43 C         140.5724  143.3276  157.6404 C.3     1  UNL1        0.0270
     44 C         141.9118  143.1631  156.9855 C.3     1  UNL1        0.0021
     45 C         142.6472  144.3645  156.4700 C.3     1  UNL1        0.0001
     46 C         142.0432  145.7305  156.6094 C.3     1  UNL1        0.0000
     47 C         140.7038  145.8949  157.2643 C.3     1  UNL1        0.0001
     48 C         139.9684  144.6935  157.7799 C.3     1  UNL1        0.0021
     49 N         138.6499  142.3024  159.0559 N.am    1  UNL1       -0.2640
     50 C         138.8346  142.8387  160.4445 C.2     1  UNL1        0.4021
     51 O         140.2063  143.1987  160.9332 O.2     1  UNL1       -0.2264
     52 H         137.7496  142.0661  158.7351 H       1  UNL1        0.1532
     53 O         137.6476  143.0151  161.3445 O.3     1  UNL1       -0.4295
     54 C         137.6853  142.4868  162.7478 C.3     1  UNL1        0.2645
     55 C         137.7602  141.0085  162.9909 C.3     1  UNL1        0.0567
     56 C         137.6481  143.4368  163.9081 C.3     1  UNL1        0.4342
     57 F         137.6110  144.3867  165.0683 F       1  UNL1       -0.1664
     58 F         137.8302  144.5917  162.9684 F       1  UNL1       -0.1664
     59 F         137.4661  142.2818  164.8478 F       1  UNL1       -0.1664
@<TRIPOS>BOND
     1    40    41    1
     2    41    29    1
     3    29    30   ar
     4    30    31   ar
     5    31    32   ar
     6    32    28    1
     7     1    28    1
     8     1     2    1
     9     2     3    1
    10     3     8    1
    11     8     9    2
    12     8    10   am
    13    12    10    1
    14    12    15    1
    15    15    16    2
    16    15    17   am
    17    17    19    1
    18    19    20    2
    19    19    21    2
    20    19    22    1
    21    22    23    1
    22    23    24    1
    23    12    13    1
    24    13    14    1
    25    14    25    1
    26    25    26    1
    27    26    27    1
    28     3     4    1
    29     4     5   am
    30     5     6    2
    31     5    42    1
    32    42    49    1
    33    49    50   am
    34    50    51    2
    35    50    53    1
    36    53    54    1
    37    54    55    1
    38    54    56    1
    39    56    57    1
    40    56    58    1
    41    56    59    1
    42    42    43    1
    43    43    44    1
    44    44    45    1
    45    45    46    1
    46    46    47    1
    47    47    48    1
    48     4     7    1
    49    32    33   ar
    50    33    34   ar
    51    34    35   ar
    52    35    36    1
    53    35    37   ar
    54    37    38   ar
    55    38    39   ar
    56    39    29   ar
    57     7     1    1
    58    39    33   ar
    59    14    12    1
    60    27    25    1
    61    48    43    1
    62    24    22    1
    63    10    11    1
    64    17    18    1
    65    49    52    1
@<TRIPOS>MOLECULE
*****
 59 65 0 0 0
SMALL
GASTEIGER

@<TRIPOS>ATOM
      1 C         140.8320  139.4507  160.7171 C.3     1  UNL1        0.1894
      2 C         141.4935  138.5334  159.7317 C.3     1  UNL1        0.0746
      3 C         141.5555  139.2400  158.4100 C.3     1  UNL1        0.1555
      4 N         140.9323  140.5940  158.5786 N.am    1  UNL1       -0.2678
      5 C         140.7825  141.6350  157.5090 C.2     1  UNL1        0.2440
      6 O         141.2805  141.3611  156.1209 O.2     1  UNL1       -0.2731
      7 C         140.4851  140.7242  160.0045 C.3     1  UNL1        0.1373
      8 C         142.1384  138.6893  157.1424 C.2     1  UNL1        0.2409
      9 O         143.4227  139.2461  156.6035 O.2     1  UNL1       -0.2733
     10 N         141.4369  137.5817  156.4135 N.am    1  UNL1       -0.2985
     11 H         140.5939  137.2162  156.7672 H       1  UNL1        0.1498
     12 C         142.0197  137.0310  155.1459 C.3     1  UNL1        0.1271
     13 C         142.2727  136.8318  153.6809 C.3     1  UNL1        0.0290
     14 C         141.2721  137.8518  154.1373 C.3     1  UNL1        0.0270
     15 C         142.9699  136.0189  155.7142 C.2     1  UNL1        0.2564
     16 O         144.4455  136.2884  155.7066 O.2     1  UNL1       -0.2718
     17 N         142.4445  134.7374  156.2900 N.am    1  UNL1       -0.1875
     18 H         141.4760  134.5605  156.2950 H       1  UNL1        0.1762
     19 S         143.3946  133.7254  156.8583 S.O2    1  UNL1        0.0543
     20 O         143.3246  134.4084  158.1919 O.2     1  UNL1       -0.1545
     21 O         143.4646  133.0423  155.5247 O.2     1  UNL1       -0.1545
     22 C         144.3447  132.7133  157.4266 C.3     1  UNL1        0.1490
     23 C         145.6269  132.3891  158.1343 C.3     1  UNL1        0.0273
     24 C         144.7082  131.2845  157.7032 C.3     1  UNL1        0.0273
     25 C         140.2627  138.9146  153.8186 C.3     1  UNL1        0.0021
     26 C         139.7554  139.9930  152.9077 C.3     1  UNL1        0.0001
     27 C         139.0217  139.6770  154.1774 C.3     1  UNL1        0.0001
     28 O         140.5643  139.1477  162.1616 O.3     1  UNL1       -0.4621
     29 C         139.8109  142.5043  165.0626 C.ar    1  UNL1        0.1579
     30 C         138.6687  141.9021  164.2993 C.ar    1  UNL1        0.1388
     31 N         138.9198  140.7832  163.3323 N.ar    1  UNL1       -0.2069
     32 C         140.3132  140.2666  163.1286 C.ar    1  UNL1        0.2249
     33 C         141.4555  140.8688  163.8919 C.ar    1  UNL1        0.0570
     34 C         142.8488  140.3522  163.6881 C.ar    1  UNL1        0.0161
     35 C         143.9911  140.9544  164.4514 C.ar    1  UNL1        0.0578
     36 CL        145.3845  140.4378  164.2476 Cl      1  UNL1       -0.0822
     37 C         143.7399  142.0733  165.4183 C.ar    1  UNL1        0.0115
     38 C         142.3466  142.5899  165.6221 C.ar    1  UNL1        0.0041
     39 C         141.2043  141.9877  164.8588 C.ar    1  UNL1        0.0401
     40 C         138.7728  144.8250  165.5980 C.3     1  UNL1        0.2525
     41 O         139.5597  143.6232  166.0296 O.3     1  UNL1       -0.4699
     42 C         140.1348  142.9499  157.8276 C.3     1  UNL1        0.1512
     43 C         139.2314  143.6035  156.8243 C.3     1  UNL1        0.0270
     44 C         138.0237  142.8741  156.3152 C.3     1  UNL1        0.0021
     45 C         137.1203  143.5278  155.3118 C.3     1  UNL1        0.0001
     46 C         137.4247  144.9109  154.8176 C.3     1  UNL1        0.0000
     47 C         138.6324  145.6404  155.3268 C.3     1  UNL1        0.0001
     48 C         139.5358  144.9867  156.3301 C.3     1  UNL1        0.0021
     49 N         140.3904  143.6110  159.1496 N.am    1  UNL1       -0.2640
     50 C         141.6887  144.3213  159.3942 C.2     1  UNL1        0.4021
     51 O         142.7314  144.3704  158.3170 O.2     1  UNL1       -0.2264
     52 H         139.7061  143.5788  159.8566 H       1  UNL1        0.1532
     53 O         141.9444  144.9825  160.7161 O.3     1  UNL1       -0.4295
     54 C         142.8151  144.3096  161.7355 C.3     1  UNL1        0.2645
     55 C         143.4671  142.9971  161.4157 C.3     1  UNL1        0.0567
     56 C         143.0338  144.9491  163.0746 C.3     1  UNL1        0.4342
     57 F         143.2525  145.5886  164.4136 F       1  UNL1       -0.1664
     58 F         144.4308  144.4037  163.1069 F       1  UNL1       -0.1664
     59 F         141.6368  145.4945  163.0422 F       1  UNL1       -0.1664
@<TRIPOS>BOND
     1    40    41    1
     2    41    29    1
     3    29    30   ar
     4    30    31   ar
     5    31    32   ar
     6    32    28    1
     7     1    28    1
     8     1     2    1
     9     2     3    1
    10     3     8    1
    11     8     9    2
    12     8    10   am
    13    12    10    1
    14    12    15    1
    15    15    16    2
    16    15    17   am
    17    17    19    1
    18    19    20    2
    19    19    21    2
    20    19    22    1
    21    22    23    1
    22    23    24    1
    23    12    13    1
    24    13    14    1
    25    14    25    1
    26    25    26    1
    27    26    27    1
    28     3     4    1
    29     4     5   am
    30     5     6    2
    31     5    42    1
    32    42    49    1
    33    49    50   am
    34    50    51    2
    35    50    53    1
    36    53    54    1
    37    54    55    1
    38    54    56    1
    39    56    57    1
    40    56    58    1
    41    56    59    1
    42    42    43    1
    43    43    44    1
    44    44    45    1
    45    45    46    1
    46    46    47    1
    47    47    48    1
    48     4     7    1
    49    32    33   ar
    50    33    34   ar
    51    34    35   ar
    52    35    36    1
    53    35    37   ar
    54    37    38   ar
    55    38    39   ar
    56    39    29   ar
    57     7     1    1
    58    39    33   ar
    59    14    12    1
    60    27    25    1
    61    48    43    1
    62    24    22    1
    63    10    11    1
    64    17    18    1
    65    49    52    1
@<TRIPOS>MOLECULE
*****
 59 65 0 0 0
SMALL
GASTEIGER

@<TRIPOS>ATOM
      1 C         141.0424  139.3817  161.4764 C.3     1  UNL1        0.1894
      2 C         141.6980  138.6473  160.3447 C.3     1  UNL1        0.0746
      3 C         142.1000  139.6552  159.3091 C.3     1  UNL1        0.1555
      4 N         141.6928  141.0126  159.8008 N.am    1  UNL1       -0.2678
      5 C         141.9024  142.3110  159.0796 C.2     1  UNL1        0.2440
      6 O         142.5750  142.3243  157.7389 O.2     1  UNL1       -0.2731
      7 C         141.0392  140.8435  161.1403 C.3     1  UNL1        0.1373
      8 C         142.7882  139.3579  158.0099 C.2     1  UNL1        0.2409
      9 O         144.2495  139.6560  157.8500 O.2     1  UNL1       -0.2733
     10 N         142.0152  138.7626  156.8706 N.am    1  UNL1       -0.2985
     11 H         141.0560  138.5670  156.9756 H       1  UNL1        0.1498
     12 C         142.7034  138.4654  155.5714 C.3     1  UNL1        0.1271
     13 C         143.1812  138.6310  154.1593 C.3     1  UNL1        0.0290
     14 C         142.3362  139.6950  154.7948 C.3     1  UNL1        0.0270
     15 C         143.3098  137.1325  155.8969 C.2     1  UNL1        0.2564
     16 O         144.7844  136.9176  155.7263 O.2     1  UNL1       -0.2718
     17 N         142.4414  136.0145  156.3928 N.am    1  UNL1       -0.1875
     18 H         141.4735  136.1555  156.5048 H       1  UNL1        0.1762
     19 S         143.0477  134.6817  156.7182 S.O2    1  UNL1        0.0543
     20 O         142.8298  134.2369  155.3024 O.2     1  UNL1       -0.1545
     21 O         143.2655  135.1265  158.1342 O.2     1  UNL1       -0.1545
     22 C         143.6540  133.3488  157.0436 C.3     1  UNL1        0.1490
     23 C         143.5596  131.8523  157.0775 C.3     1  UNL1        0.0273
     24 C         144.7986  132.5370  157.5735 C.3     1  UNL1        0.0273
     25 C         141.6363  141.0192  154.7134 C.3     1  UNL1        0.0021
     26 C         140.3976  141.8467  154.8890 C.3     1  UNL1        0.0001
     27 C         141.6627  142.4852  154.3969 C.3     1  UNL1        0.0001
     28 O         140.4874  138.7630  162.7251 O.3     1  UNL1       -0.4621
     29 C         142.4787  139.5211  166.6887 C.ar    1  UNL1        0.1579
     30 C         142.8220  138.2925  165.8997 C.ar    1  UNL1        0.1388
     31 N         142.1583  138.0398  164.5785 N.ar    1  UNL1       -0.2069
     32 C         141.1512  139.0157  164.0463 C.ar    1  UNL1        0.2249
     33 C         140.8078  140.2444  164.8353 C.ar    1  UNL1        0.0570
     34 C         139.8007  141.2203  164.3030 C.ar    1  UNL1        0.0161
     35 C         139.4574  142.4490  165.0920 C.ar    1  UNL1        0.0578
     36 CL        138.4502  143.4250  164.5598 Cl      1  UNL1       -0.0822
     37 C         140.1211  142.7017  166.4132 C.ar    1  UNL1        0.0115
     38 C         141.1282  141.7258  166.9454 C.ar    1  UNL1        0.0041
     39 C         141.4715  140.4971  166.1565 C.ar    1  UNL1        0.0401
     40 C         142.5157  139.2641  169.2737 C.3     1  UNL1        0.2525
     41 O         143.1424  139.7739  168.0099 O.3     1  UNL1       -0.4699
     42 C         141.4395  143.5963  159.6991 C.3     1  UNL1        0.1512
     43 C         141.9437  144.0008  161.0527 C.3     1  UNL1        0.0270
     44 C         141.0298  144.6991  162.0156 C.3     1  UNL1        0.0021
     45 C         141.5340  145.1035  163.3692 C.3     1  UNL1        0.0001
     46 C         142.9521  144.8097  163.7600 C.3     1  UNL1        0.0000
     47 C         143.8660  144.1114  162.7971 C.3     1  UNL1        0.0001
     48 C         143.3618  143.7069  161.4435 C.3     1  UNL1        0.0021
     49 N         140.4724  144.4771  158.9650 N.am    1  UNL1       -0.2640
     50 C         140.9790  145.6214  158.1381 C.2     1  UNL1        0.4021
     51 O         142.4528  145.8849  158.0453 O.2     1  UNL1       -0.2264
     52 H         139.5051  144.3041  159.0260 H       1  UNL1        0.1532
     53 O         140.0120  146.5022  157.4039 O.3     1  UNL1       -0.4295
     54 C         139.7641  146.2875  155.9403 C.3     1  UNL1        0.2645
     55 C         140.8432  146.5927  154.9441 C.3     1  UNL1        0.0567
     56 C         138.4371  145.7674  155.4727 C.3     1  UNL1        0.4342
     57 F         137.1101  145.2474  155.0052 F       1  UNL1       -0.1664
     58 F         138.7446  144.4328  156.0844 F       1  UNL1       -0.1664
     59 F         138.1296  147.1021  154.8610 F       1  UNL1       -0.1664
@<TRIPOS>BOND
     1    40    41    1
     2    41    29    1
     3    29    30   ar
     4    30    31   ar
     5    31    32   ar
     6    32    28    1
     7     1    28    1
     8     1     2    1
     9     2     3    1
    10     3     8    1
    11     8     9    2
    12     8    10   am
    13    12    10    1
    14    12    15    1
    15    15    16    2
    16    15    17   am
    17    17    19    1
    18    19    20    2
    19    19    21    2
    20    19    22    1
    21    22    23    1
    22    23    24    1
    23    12    13    1
    24    13    14    1
    25    14    25    1
    26    25    26    1
    27    26    27    1
    28     3     4    1
    29     4     5   am
    30     5     6    2
    31     5    42    1
    32    42    49    1
    33    49    50   am
    34    50    51    2
    35    50    53    1
    36    53    54    1
    37    54    55    1
    38    54    56    1
    39    56    57    1
    40    56    58    1
    41    56    59    1
    42    42    43    1
    43    43    44    1
    44    44    45    1
    45    45    46    1
    46    46    47    1
    47    47    48    1
    48     4     7    1
    49    32    33   ar
    50    33    34   ar
    51    34    35   ar
    52    35    36    1
    53    35    37   ar
    54    37    38   ar
    55    38    39   ar
    56    39    29   ar
    57     7     1    1
    58    39    33   ar
    59    14    12    1
    60    27    25    1
    61    48    43    1
    62    24    22    1
    63    10    11    1
    64    17    18    1
    65    49    52    1
@<TRIPOS>MOLECULE
*****
 59 65 0 0 0
SMALL
GASTEIGER

@<TRIPOS>ATOM
      1 C         138.7308  140.1572  159.1108 C.3     1  UNL1        0.1894
      2 C         139.4333  139.1281  158.2756 C.3     1  UNL1        0.0746
      3 C         140.4619  139.8318  157.4409 C.3     1  UNL1        0.1555
      4 N         140.3950  141.2960  157.7602 N.am    1  UNL1       -0.2678
      5 C         141.2482  142.3704  157.1538 C.2     1  UNL1        0.2440
      6 O         142.2832  142.0164  156.1274 O.2     1  UNL1       -0.2731
      7 C         139.3252  141.4970  158.7922 C.3     1  UNL1        0.1373
      8 C         141.3936  139.1851  156.4593 C.2     1  UNL1        0.2409
      9 O         140.9469  138.9445  155.0477 O.2     1  UNL1       -0.2733
     10 N         142.7721  138.7790  156.8892 N.am    1  UNL1       -0.2985
     11 H         143.0653  138.9369  157.8157 H       1  UNL1        0.1498
     12 C         143.7038  138.1323  155.9076 C.3     1  UNL1        0.1271
     13 C         144.8614  137.9528  154.9707 C.3     1  UNL1        0.0290
     14 C         144.6778  139.2531  155.6955 C.3     1  UNL1        0.0270
     15 C         143.0534  136.7867  155.7787 C.2     1  UNL1        0.2564
     16 O         142.2182  136.2468  156.9016 O.2     1  UNL1       -0.2718
     17 N         143.2383  135.9811  154.5270 N.am    1  UNL1       -0.1875
     18 H         143.7864  136.3355  153.7900 H       1  UNL1        0.1762
     19 S         142.5879  134.6356  154.3981 S.O2    1  UNL1        0.0543
     20 O         141.4706  135.2513  153.6091 O.2     1  UNL1       -0.1545
     21 O         143.7052  134.0200  155.1872 O.2     1  UNL1       -0.1545
     22 C         141.9375  133.2902  154.2693 C.3     1  UNL1        0.1490
     23 C         141.7227  132.0193  153.5021 C.3     1  UNL1        0.0273
     24 C         141.0258  132.2306  154.8134 C.3     1  UNL1        0.0273
     25 C         145.1340  140.6511  155.9916 C.3     1  UNL1        0.0021
     26 C         145.6037  141.6838  156.9729 C.3     1  UNL1        0.0001
     27 C         145.4546  142.0396  155.5232 C.3     1  UNL1        0.0001
     28 O         137.6277  139.8929  160.0921 O.3     1  UNL1       -0.4621
     29 C         138.6134  138.7066  164.3196 C.ar    1  UNL1        0.1579
     30 C         138.5467  137.6632  163.2440 C.ar    1  UNL1        0.1388
     31 N         138.2181  138.0587  161.8348 N.ar    1  UNL1       -0.2069
     32 C         137.9563  139.4974  161.5013 C.ar    1  UNL1        0.2249
     33 C         138.0229  140.5409  162.5769 C.ar    1  UNL1        0.0570
     34 C         137.7610  141.9797  162.2434 C.ar    1  UNL1        0.0161
     35 C         137.8277  143.0230  163.3190 C.ar    1  UNL1        0.0578
     36 CL        137.5658  144.4619  162.9854 Cl      1  UNL1       -0.0822
     37 C         138.1562  142.6276  164.7281 C.ar    1  UNL1        0.0115
     38 C         138.4181  141.1888  165.0616 C.ar    1  UNL1        0.0041
     39 C         138.3515  140.1454  163.9861 C.ar    1  UNL1        0.0401
     40 C         137.8405  138.1022  166.7253 C.3     1  UNL1        0.2525
     41 O         138.9419  138.3112  165.7287 O.3     1  UNL1       -0.4699
     42 C         141.0665  143.7989  157.5739 C.3     1  UNL1        0.1512
     43 C         140.1558  144.7000  156.7937 C.3     1  UNL1        0.0270
     44 C         139.0085  144.1200  156.0210 C.3     1  UNL1        0.0021
     45 C         138.0979  145.0211  155.2408 C.3     1  UNL1        0.0001
     46 C         138.3345  146.5023  155.2334 C.3     1  UNL1        0.0000
     47 C         139.4818  147.0824  156.0062 C.3     1  UNL1        0.0001
     48 C         140.3925  146.1812  156.7863 C.3     1  UNL1        0.0021
     49 N         141.7954  144.3262  158.7741 N.am    1  UNL1       -0.2640
     50 C         141.0340  144.6887  160.0146 C.2     1  UNL1        0.4021
     51 O         139.5436  144.5240  160.0548 O.2     1  UNL1       -0.2264
     52 H         142.7736  144.4343  158.7478 H       1  UNL1        0.1532
     53 O         141.7628  145.2161  161.2149 O.3     1  UNL1       -0.4295
     54 C         142.4576  144.2681  162.1468 C.3     1  UNL1        0.2645
     55 C         143.8196  144.6026  162.6787 C.3     1  UNL1        0.0567
     56 C         141.7904  142.9855  162.5469 C.3     1  UNL1        0.4342
     57 F         141.1232  141.7031  162.9469 F       1  UNL1       -0.1664
     58 F         142.5906  142.2474  161.5150 F       1  UNL1       -0.1664
     59 F         140.9902  143.7238  163.5787 F       1  UNL1       -0.1664
@<TRIPOS>BOND
     1    40    41    1
     2    41    29    1
     3    29    30   ar
     4    30    31   ar
     5    31    32   ar
     6    32    28    1
     7     1    28    1
     8     1     2    1
     9     2     3    1
    10     3     8    1
    11     8     9    2
    12     8    10   am
    13    12    10    1
    14    12    15    1
    15    15    16    2
    16    15    17   am
    17    17    19    1
    18    19    20    2
    19    19    21    2
    20    19    22    1
    21    22    23    1
    22    23    24    1
    23    12    13    1
    24    13    14    1
    25    14    25    1
    26    25    26    1
    27    26    27    1
    28     3     4    1
    29     4     5   am
    30     5     6    2
    31     5    42    1
    32    42    49    1
    33    49    50   am
    34    50    51    2
    35    50    53    1
    36    53    54    1
    37    54    55    1
    38    54    56    1
    39    56    57    1
    40    56    58    1
    41    56    59    1
    42    42    43    1
    43    43    44    1
    44    44    45    1
    45    45    46    1
    46    46    47    1
    47    47    48    1
    48     4     7    1
    49    32    33   ar
    50    33    34   ar
    51    34    35   ar
    52    35    36    1
    53    35    37   ar
    54    37    38   ar
    55    38    39   ar
    56    39    29   ar
    57     7     1    1
    58    39    33   ar
    59    14    12    1
    60    27    25    1
    61    48    43    1
    62    24    22    1
    63    10    11    1
    64    17    18    1
    65    49    52    1
@<TRIPOS>MOLECULE
*****
 59 65 0 0 0
SMALL
GASTEIGER

@<TRIPOS>ATOM
      1 C         141.2049  139.2755  160.8887 C.3     1  UNL1        0.1894
      2 C         141.8366  138.3590  159.8832 C.3     1  UNL1        0.0746
      3 C         141.8270  139.0528  158.5533 C.3     1  UNL1        0.1555
      4 N         141.1893  140.3981  158.7370 N.am    1  UNL1       -0.2678
      5 C         140.9740  141.4254  157.6654 C.2     1  UNL1        0.2440
      6 O         141.4133  141.1454  156.2588 O.2     1  UNL1       -0.2731
      7 C         140.8049  140.5357  160.1804 C.3     1  UNL1        0.1373
      8 C         142.3611  138.4986  157.2659 C.2     1  UNL1        0.2409
      9 O         143.7135  138.9193  156.7721 O.2     1  UNL1       -0.2733
     10 N         141.5428  137.5237  156.4721 N.am    1  UNL1       -0.2985
     11 H         140.6551  137.2476  156.7962 H       1  UNL1        0.1498
     12 C         142.0770  136.9696  155.1847 C.3     1  UNL1        0.1271
     13 C         142.2852  136.7770  153.7118 C.3     1  UNL1        0.0290
     14 C         141.3239  137.8181  154.2035 C.3     1  UNL1        0.0270
     15 C         143.0157  135.9285  155.7187 C.2     1  UNL1        0.2564
     16 O         144.4958  136.0884  155.5352 O.2     1  UNL1       -0.2718
     17 N         142.4742  134.7277  156.4363 N.am    1  UNL1       -0.1875
     18 H         141.5028  134.6229  156.5567 H       1  UNL1        0.1762
     19 S         143.4129  133.6868  156.9703 S.O2    1  UNL1        0.0543
     20 O         143.3507  132.9587  155.6604 O.2     1  UNL1       -0.1545
     21 O         143.4750  134.4149  158.2804 O.2     1  UNL1       -0.1545
     22 C         144.3515  132.6458  157.5044 C.3     1  UNL1        0.1490
     23 C         145.6760  132.2754  158.1031 C.3     1  UNL1        0.0273
     24 C         144.6528  131.2130  157.8306 C.3     1  UNL1        0.0273
     25 C         140.3340  138.9092  153.9210 C.3     1  UNL1        0.0021
     26 C         139.9298  140.1273  153.1446 C.3     1  UNL1        0.0001
     27 C         139.0238  139.5808  154.2079 C.3     1  UNL1        0.0001
     28 O         141.0079  138.9830  162.3467 O.3     1  UNL1       -0.4621
     29 C         142.8685  141.6587  165.4497 C.ar    1  UNL1        0.1579
     30 C         143.6458  140.5032  164.8923 C.ar    1  UNL1        0.1388
     31 N         143.0256  139.6114  163.8580 N.ar    1  UNL1       -0.2069
     32 C         141.6281  139.8749  163.3810 C.ar    1  UNL1        0.2249
     33 C         140.8507  141.0304  163.9384 C.ar    1  UNL1        0.0570
     34 C         139.4532  141.2940  163.4615 C.ar    1  UNL1        0.0161
     35 C         138.6760  142.4495  164.0189 C.ar    1  UNL1        0.0578
     36 CL        137.2784  142.7131  163.5419 Cl      1  UNL1       -0.0822
     37 C         139.2962  143.3413  165.0532 C.ar    1  UNL1        0.0115
     38 C         140.6937  143.0778  165.5302 C.ar    1  UNL1        0.0041
     39 C         141.4709  141.9223  164.9728 C.ar    1  UNL1        0.0401
     40 C         143.2704  142.2731  167.9419 C.3     1  UNL1        0.2525
     41 O         143.4887  142.5506  166.4841 O.3     1  UNL1       -0.4699
     42 C         140.3193  142.7328  158.0005 C.3     1  UNL1        0.1512
     43 C         139.3279  143.3398  157.0525 C.3     1  UNL1        0.0270
     44 C         139.6168  144.6652  156.4123 C.3     1  UNL1        0.0021
     45 C         138.6253  145.2722  155.4644 C.3     1  UNL1        0.0001
     46 C         137.3450  144.5538  155.1566 C.3     1  UNL1        0.0000
     47 C         137.0562  143.2284  155.7967 C.3     1  UNL1        0.0001
     48 C         138.0476  142.6214  156.7447 C.3     1  UNL1        0.0021
     49 N         140.6561  143.4331  159.2835 N.am    1  UNL1       -0.2640
     50 C         141.9325  144.2122  159.4000 C.2     1  UNL1        0.4021
     51 O         142.8722  144.2910  158.2334 O.2     1  UNL1       -0.2264
     52 H         140.0393  143.3813  160.0491 H       1  UNL1        0.1532
     53 O         142.2694  144.9126  160.6830 O.3     1  UNL1       -0.4295
     54 C         142.8567  144.1406  161.8271 C.3     1  UNL1        0.2645
     55 C         143.2852  142.7167  161.6297 C.3     1  UNL1        0.0567
     56 C         143.0155  144.7925  163.1687 C.3     1  UNL1        0.4342
     57 F         143.1742  145.4443  164.5102 F       1  UNL1       -0.1664
     58 F         144.4421  144.3324  163.2235 F       1  UNL1       -0.1664
     59 F         141.5888  145.2526  163.1139 F       1  UNL1       -0.1664
@<TRIPOS>BOND
     1    40    41    1
     2    41    29    1
     3    29    30   ar
     4    30    31   ar
     5    31    32   ar
     6    32    28    1
     7     1    28    1
     8     1     2    1
     9     2     3    1
    10     3     8    1
    11     8     9    2
    12     8    10   am
    13    12    10    1
    14    12    15    1
    15    15    16    2
    16    15    17   am
    17    17    19    1
    18    19    20    2
    19    19    21    2
    20    19    22    1
    21    22    23    1
    22    23    24    1
    23    12    13    1
    24    13    14    1
    25    14    25    1
    26    25    26    1
    27    26    27    1
    28     3     4    1
    29     4     5   am
    30     5     6    2
    31     5    42    1
    32    42    49    1
    33    49    50   am
    34    50    51    2
    35    50    53    1
    36    53    54    1
    37    54    55    1
    38    54    56    1
    39    56    57    1
    40    56    58    1
    41    56    59    1
    42    42    43    1
    43    43    44    1
    44    44    45    1
    45    45    46    1
    46    46    47    1
    47    47    48    1
    48     4     7    1
    49    32    33   ar
    50    33    34   ar
    51    34    35   ar
    52    35    36    1
    53    35    37   ar
    54    37    38   ar
    55    38    39   ar
    56    39    29   ar
    57     7     1    1
    58    39    33   ar
    59    14    12    1
    60    27    25    1
    61    48    43    1
    62    24    22    1
    63    10    11    1
    64    17    18    1
    65    49    52    1
@<TRIPOS>MOLECULE
*****
 59 65 0 0 0
SMALL
GASTEIGER

@<TRIPOS>ATOM
      1 C         138.2669  141.0659  160.1522 C.3     1  UNL1        0.1894
      2 C         138.3378  142.2018  159.1751 C.3     1  UNL1        0.0746
      3 C         139.3686  141.8598  158.1405 C.3     1  UNL1        0.1555
      4 N         139.9349  140.5124  158.4782 N.am    1  UNL1       -0.2678
      5 C         140.9958  139.7836  157.7079 C.2     1  UNL1        0.2440
      6 O         141.5876  140.4030  156.4765 O.2     1  UNL1       -0.2731
      7 C         139.2540  140.0218  159.7215 C.3     1  UNL1        0.1373
      8 C         139.7638  142.7149  156.9732 C.2     1  UNL1        0.2409
      9 O         141.0071  143.5511  157.0429 O.2     1  UNL1       -0.2733
     10 N         138.9156  142.7339  155.7361 N.am    1  UNL1       -0.2985
     11 H         138.0996  142.1850  155.6904 H       1  UNL1        0.1498
     12 C         139.3108  143.5890  154.5689 C.3     1  UNL1        0.1271
     13 C         139.8808  143.9814  153.2381 C.3     1  UNL1        0.0290
     14 C         139.9514  142.5537  153.6926 C.3     1  UNL1        0.0270
     15 C         138.8075  144.9213  155.0397 C.2     1  UNL1        0.2564
     16 O         137.3341  145.1524  155.1999 O.2     1  UNL1       -0.2718
     17 N         139.7775  146.0224  155.3504 N.am    1  UNL1       -0.1875
     18 H         140.7446  145.8707  155.2453 H       1  UNL1        0.1762
     19 S         139.2742  147.3546  155.8213 S.O2    1  UNL1        0.0543
     20 O         139.1772  147.8207  154.3989 O.2     1  UNL1       -0.1545
     21 O         139.3712  146.8885  157.2438 O.2     1  UNL1       -0.1545
     22 C         138.7709  148.6869  156.2921 C.3     1  UNL1        0.1490
     23 C         138.3032  149.5803  157.4025 C.3     1  UNL1        0.0273
     24 C         138.3667  150.1010  155.9972 C.3     1  UNL1        0.0273
     25 C         140.3620  141.1316  153.4492 C.3     1  UNL1        0.0021
     26 C         141.4057  140.1312  153.0496 C.3     1  UNL1        0.0001
     27 C         140.0294  139.6691  153.4271 C.3     1  UNL1        0.0001
     28 O         137.3670  140.9878  161.3497 O.3     1  UNL1       -0.4621
     29 C         139.1336  140.8355  165.4856 C.ar    1  UNL1        0.1579
     30 C         138.5156  139.6062  164.8883 C.ar    1  UNL1        0.1388
     31 N         137.9268  139.6569  163.5096 N.ar    1  UNL1       -0.2069
     32 C         137.9559  140.9370  162.7283 C.ar    1  UNL1        0.2249
     33 C         138.5739  142.1664  163.3256 C.ar    1  UNL1        0.0570
     34 C         138.6030  143.4465  162.5443 C.ar    1  UNL1        0.0161
     35 C         139.2210  144.6758  163.1417 C.ar    1  UNL1        0.0578
     36 CL        139.2501  145.9560  162.3604 Cl      1  UNL1       -0.0822
     37 C         139.8098  144.6250  164.5203 C.ar    1  UNL1        0.0115
     38 C         139.7807  143.3450  165.3016 C.ar    1  UNL1        0.0041
     39 C         139.1627  142.1156  164.7043 C.ar    1  UNL1        0.0401
     40 C         141.1286  140.3013  167.0619 C.3     1  UNL1        0.2525
     41 O         139.7225  140.7847  166.8642 O.3     1  UNL1       -0.4699
     42 C         141.4648  138.4355  158.1688 C.3     1  UNL1        0.1512
     43 C         141.6780  137.3345  157.1726 C.3     1  UNL1        0.0270
     44 C         142.9581  136.5526  157.1814 C.3     1  UNL1        0.0021
     45 C         143.1713  135.4516  156.1852 C.3     1  UNL1        0.0001
     46 C         142.1044  135.1326  155.1802 C.3     1  UNL1        0.0000
     47 C         140.8244  135.9145  155.1714 C.3     1  UNL1        0.0001
     48 C         140.6112  137.0155  156.1676 C.3     1  UNL1        0.0021
     49 N         141.7208  138.1884  159.6260 N.am    1  UNL1       -0.2640
     50 C         143.0177  138.6204  160.2435 C.2     1  UNL1        0.4021
     51 O         144.0587  139.2995  159.4038 O.2     1  UNL1       -0.2264
     52 H         141.0375  137.7427  160.1772 H       1  UNL1        0.1532
     53 O         143.2737  138.3734  161.7007 O.3     1  UNL1       -0.4295
     54 C         142.2319  138.7354  162.7173 C.3     1  UNL1        0.2645
     55 C         141.6798  140.1294  162.7617 C.3     1  UNL1        0.0567
     56 C         141.7420  137.7034  163.6895 C.3     1  UNL1        0.4342
     57 F         141.2522  136.6715  164.6616 F       1  UNL1       -0.1664
     58 F         142.7678  138.1554  164.6862 F       1  UNL1       -0.1664
     59 F         140.7162  137.2515  162.6927 F       1  UNL1       -0.1664
@<TRIPOS>BOND
     1    40    41    1
     2    41    29    1
     3    29    30   ar
     4    30    31   ar
     5    31    32   ar
     6    32    28    1
     7     1    28    1
     8     1     2    1
     9     2     3    1
    10     3     8    1
    11     8     9    2
    12     8    10   am
    13    12    10    1
    14    12    15    1
    15    15    16    2
    16    15    17   am
    17    17    19    1
    18    19    20    2
    19    19    21    2
    20    19    22    1
    21    22    23    1
    22    23    24    1
    23    12    13    1
    24    13    14    1
    25    14    25    1
    26    25    26    1
    27    26    27    1
    28     3     4    1
    29     4     5   am
    30     5     6    2
    31     5    42    1
    32    42    49    1
    33    49    50   am
    34    50    51    2
    35    50    53    1
    36    53    54    1
    37    54    55    1
    38    54    56    1
    39    56    57    1
    40    56    58    1
    41    56    59    1
    42    42    43    1
    43    43    44    1
    44    44    45    1
    45    45    46    1
    46    46    47    1
    47    47    48    1
    48     4     7    1
    49    32    33   ar
    50    33    34   ar
    51    34    35   ar
    52    35    36    1
    53    35    37   ar
    54    37    38   ar
    55    38    39   ar
    56    39    29   ar
    57     7     1    1
    58    39    33   ar
    59    14    12    1
    60    27    25    1
    61    48    43    1
    62    24    22    1
    63    10    11    1
    64    17    18    1
    65    49    52    1
