@<TRIPOS>MOLECULE
*****
 36 40 0 0 0
SMALL
GASTEIGER

@<TRIPOS>ATOM
      1 O         137.4533  139.8703  160.5189 O.2     1  UNL1       -0.2647
      2 C         138.7121  139.2789  161.0807 C.2     1  UNL1        0.3045
      3 N         139.8324  138.8890  160.1626 N.am    1  UNL1       -0.2720
      4 C         141.0913  138.2976  160.7246 C.3     1  UNL1        0.0976
      5 C         142.2115  137.9077  159.8065 C.3     1  UNL1        0.0651
      6 C         142.0730  138.1092  158.3266 C.3     1  UNL1        0.1693
      7 C         140.8143  138.7006  157.7646 C.3     1  UNL1        0.0651
      8 C         139.6939  139.0905  158.6827 C.3     1  UNL1        0.0976
      9 C         138.8505  139.0774  162.5607 C.ar    1  UNL1        0.3042
     10 N         138.6770  137.7804  163.2940 N.ar    1  UNL1       -0.1021
     11 N         138.9061  138.0389  164.7536 N.ar    1  UNL1       -0.1068
     12 C         139.2212  139.4957  164.9225 C.ar    1  UNL1        0.2501
     13 O         139.1868  140.1375  163.5672 O.2     1  UNL1       -0.4122
     14 C         139.5184  140.1890  166.2191 C.ar    1  UNL1        0.0553
     15 C         139.1119  139.5576  167.5176 C.ar    1  UNL1        0.0078
     16 C         139.4091  140.2509  168.8141 C.ar    1  UNL1        0.0372
     17 C         140.1129  141.5755  168.8121 C.ar    1  UNL1        0.1443
     18 C         140.5195  142.2069  167.5136 C.ar    1  UNL1        0.0372
     19 C         140.2222  141.5136  166.2171 C.ar    1  UNL1        0.0078
     20 O         140.4102  142.2688  170.1087 O.3     1  UNL1       -0.4236
     21 C         141.0969  143.6024  170.1059 C.3     1  UNL1        0.5087
     22 F         142.5918  143.6763  170.2057 F       1  UNL1       -0.1550
     23 F         140.2889  144.8619  170.0033 F       1  UNL1       -0.1550
     24 O         143.1934  137.7193  157.4085 O.3     1  UNL1       -0.4791
     25 C         143.1506  136.4035  156.6897 C.ar    1  UNL1        0.1384
     26 C         143.2236  135.1221  157.4661 C.ar    1  UNL1        0.0366
     27 C         143.1808  133.8062  156.7474 C.ar    1  UNL1        0.0002
     28 C         143.0651  133.7717  155.2522 C.ar    1  UNL1       -0.0059
     29 C         142.9922  135.0530  154.4758 C.ar    1  UNL1        0.0002
     30 C         143.0349  136.3689  155.1946 C.ar    1  UNL1        0.0366
     31 C         143.0224  132.4557  154.5336 C.3     1  UNL1        0.0991
     32 N         143.3557  131.1899  155.2661 N.3     1  UNL1       -0.2690
     33 C         144.7311  130.7264  155.6447 C.3     1  UNL1        0.0724
     34 C         144.5975  129.4154  156.3612 C.3     1  UNL1        0.0188
     35 C         143.1396  129.0687  156.4255 C.3     1  UNL1        0.0188
     36 C         142.3720  130.1654  155.7487 C.3     1  UNL1        0.0724
@<TRIPOS>BOND
     1     1     2    2
     2     2     9    1
     3     9    10   ar
     4    10    11   ar
     5    11    12   ar
     6    12    14    1
     7    14    15   ar
     8    15    16   ar
     9    16    17   ar
    10    17    20    1
    11    20    21    1
    12    21    22    1
    13    21    23    1
    14    17    18   ar
    15    18    19   ar
    16    12    13   ar
    17     2     3   am
    18     3     4    1
    19     4     5    1
    20     5     6    1
    21     6    24    1
    22    24    25    1
    23    25    26   ar
    24    26    27   ar
    25    27    28   ar
    26    28    31    1
    27    31    32    1
    28    32    33    1
    29    33    34    1
    30    34    35    1
    31    35    36    1
    32    28    29   ar
    33    29    30   ar
    34     6     7    1
    35     7     8    1
    36    13     9   ar
    37     8     3    1
    38    19    14   ar
    39    30    25   ar
    40    36    32    1
@<TRIPOS>MOLECULE
*****
 36 40 0 0 0
SMALL
GASTEIGER

@<TRIPOS>ATOM
      1 O         137.3764  139.6505  160.5292 O.2     1  UNL1       -0.2647
      2 C         138.6692  139.1156  161.0700 C.2     1  UNL1        0.3045
      3 N         139.7852  138.7616  160.1323 N.am    1  UNL1       -0.2720
      4 C         141.0781  138.2266  160.6732 C.3     1  UNL1        0.0976
      5 C         142.1940  137.8726  159.7355 C.3     1  UNL1        0.0651
      6 C         142.0171  138.0534  158.2570 C.3     1  UNL1        0.1693
      7 C         140.7243  138.5883  157.7161 C.3     1  UNL1        0.0651
      8 C         139.6083  138.9424  158.6538 C.3     1  UNL1        0.0976
      9 C         138.8461  138.9348  162.5485 C.ar    1  UNL1        0.3042
     10 N         138.7782  137.6337  163.2920 N.ar    1  UNL1       -0.1021
     11 N         139.0121  137.9181  164.7461 N.ar    1  UNL1       -0.1068
     12 C         139.2245  139.3948  164.9014 C.ar    1  UNL1        0.2501
     13 O         139.1219  140.0232  163.5432 O.2     1  UNL1       -0.4122
     14 C         139.4924  140.1166  166.1888 C.ar    1  UNL1        0.0553
     15 C         140.2080  141.4348  166.1747 C.ar    1  UNL1        0.0078
     16 C         140.4759  142.1565  167.4621 C.ar    1  UNL1        0.0372
     17 C         140.0282  141.5600  168.7635 C.ar    1  UNL1        0.1443
     18 C         139.3126  140.2418  168.7776 C.ar    1  UNL1        0.0372
     19 C         139.0447  139.5201  167.4902 C.ar    1  UNL1        0.0078
     20 O         140.2961  142.2817  170.0509 O.3     1  UNL1       -0.4236
     21 C         141.1248  143.5320  170.0514 C.3     1  UNL1        0.5087
     22 F         142.6220  143.4395  170.0563 F       1  UNL1       -0.1550
     23 F         140.4564  144.8748  170.0469 F       1  UNL1       -0.1550
     24 O         143.1331  137.6994  157.3193 O.3     1  UNL1       -0.4791
     25 C         143.1409  136.3660  156.6323 C.ar    1  UNL1        0.1384
     26 C         142.8906  136.2816  155.1557 C.ar    1  UNL1        0.0366
     27 C         142.8984  134.9482  154.4687 C.ar    1  UNL1        0.0002
     28 C         143.1565  133.6992  155.2582 C.ar    1  UNL1       -0.0059
     29 C         143.4068  133.7836  156.7348 C.ar    1  UNL1        0.0002
     30 C         143.3990  135.1169  157.4218 C.ar    1  UNL1        0.0366
     31 C         143.1642  132.3659  154.5711 C.3     1  UNL1        0.0991
     32 N         141.8882  131.5916  154.4216 N.3     1  UNL1       -0.2690
     33 C         140.7852  131.8892  153.4496 C.3     1  UNL1        0.0724
     34 C         139.7065  130.8653  153.6451 C.3     1  UNL1        0.0188
     35 C         140.1429  129.9351  154.7379 C.3     1  UNL1        0.0188
     36 C         141.4914  130.3840  155.2178 C.3     1  UNL1        0.0724
@<TRIPOS>BOND
     1     1     2    2
     2     2     9    1
     3     9    10   ar
     4    10    11   ar
     5    11    12   ar
     6    12    14    1
     7    14    15   ar
     8    15    16   ar
     9    16    17   ar
    10    17    20    1
    11    20    21    1
    12    21    22    1
    13    21    23    1
    14    17    18   ar
    15    18    19   ar
    16    12    13   ar
    17     2     3   am
    18     3     4    1
    19     4     5    1
    20     5     6    1
    21     6    24    1
    22    24    25    1
    23    25    26   ar
    24    26    27   ar
    25    27    28   ar
    26    28    31    1
    27    31    32    1
    28    32    33    1
    29    33    34    1
    30    34    35    1
    31    35    36    1
    32    28    29   ar
    33    29    30   ar
    34     6     7    1
    35     7     8    1
    36    13     9   ar
    37     8     3    1
    38    19    14   ar
    39    30    25   ar
    40    36    32    1
@<TRIPOS>MOLECULE
*****
 36 40 0 0 0
SMALL
GASTEIGER

@<TRIPOS>ATOM
      1 O         137.2773  139.8951  159.1019 O.2     1  UNL1       -0.2647
      2 C         138.6028  139.8914  159.8040 C.2     1  UNL1        0.3045
      3 N         139.7938  139.2511  159.1545 N.am    1  UNL1       -0.2720
      4 C         141.1194  139.2474  159.8567 C.3     1  UNL1        0.0976
      5 C         142.3102  138.6072  159.2073 C.3     1  UNL1        0.0651
      6 C         142.1756  137.9706  157.8558 C.3     1  UNL1        0.1693
      7 C         140.8500  137.9742  157.1536 C.3     1  UNL1        0.0651
      8 C         139.6591  138.6145  157.8030 C.3     1  UNL1        0.0976
      9 C         138.7375  140.5280  161.1555 C.ar    1  UNL1        0.3042
     10 N         138.8148  142.0002  161.4329 N.ar    1  UNL1       -0.1021
     11 N         138.9435  142.1862  162.9158 N.ar    1  UNL1       -0.1068
     12 C         138.9458  140.8292  163.5548 C.ar    1  UNL1        0.2501
     13 O         138.8184  139.8043  162.4669 O.2     1  UNL1       -0.4122
     14 C         139.0560  140.5465  165.0238 C.ar    1  UNL1        0.0553
     15 C         139.9580  141.3823  165.8828 C.ar    1  UNL1        0.0078
     16 C         140.0682  141.0996  167.3517 C.ar    1  UNL1        0.0372
     17 C         139.2765  139.9811  167.9617 C.ar    1  UNL1        0.1443
     18 C         138.3745  139.1453  167.1028 C.ar    1  UNL1        0.0372
     19 C         138.2643  139.4280  165.6338 C.ar    1  UNL1        0.0078
     20 O         139.3867  139.6984  169.4308 O.3     1  UNL1       -0.4236
     21 C         140.7164  139.8032  170.1170 C.3     1  UNL1        0.5087
     22 F         140.8394  140.5687  171.4012 F       1  UNL1       -0.1550
     23 F         141.9231  139.1426  169.5191 F       1  UNL1       -0.1550
     24 O         143.3665  137.3303  157.2063 O.3     1  UNL1       -0.4791
     25 C         143.2153  136.0240  156.4847 C.ar    1  UNL1        0.1384
     26 C         143.3690  134.7324  157.2318 C.ar    1  UNL1        0.0366
     27 C         143.2178  133.4261  156.5102 C.ar    1  UNL1        0.0002
     28 C         142.9130  133.4113  155.0416 C.ar    1  UNL1       -0.0059
     29 C         142.7594  134.7029  154.2945 C.ar    1  UNL1        0.0002
     30 C         142.9105  136.0092  155.0161 C.ar    1  UNL1        0.0366
     31 C         142.7619  132.1049  154.3201 C.3     1  UNL1        0.0991
     32 N         143.1925  130.8290  154.9808 N.3     1  UNL1       -0.2690
     33 C         144.5931  130.2953  155.0389 C.3     1  UNL1        0.0724
     34 C         144.5643  128.9992  155.7934 C.3     1  UNL1        0.0188
     35 C         143.1459  128.7319  156.2017 C.3     1  UNL1        0.0188
     36 C         142.2981  129.8628  155.6994 C.3     1  UNL1        0.0724
@<TRIPOS>BOND
     1     1     2    2
     2     2     9    1
     3     9    10   ar
     4    10    11   ar
     5    11    12   ar
     6    12    14    1
     7    14    15   ar
     8    15    16   ar
     9    16    17   ar
    10    17    20    1
    11    20    21    1
    12    21    22    1
    13    21    23    1
    14    17    18   ar
    15    18    19   ar
    16    12    13   ar
    17     2     3   am
    18     3     4    1
    19     4     5    1
    20     5     6    1
    21     6    24    1
    22    24    25    1
    23    25    26   ar
    24    26    27   ar
    25    27    28   ar
    26    28    31    1
    27    31    32    1
    28    32    33    1
    29    33    34    1
    30    34    35    1
    31    35    36    1
    32    28    29   ar
    33    29    30   ar
    34     6     7    1
    35     7     8    1
    36    13     9   ar
    37     8     3    1
    38    19    14   ar
    39    30    25   ar
    40    36    32    1
@<TRIPOS>MOLECULE
*****
 36 40 0 0 0
SMALL
GASTEIGER

@<TRIPOS>ATOM
      1 O         143.8951  139.7792  158.6679 O.2     1  UNL1       -0.2647
      2 C         142.6648  138.9371  158.8331 C.2     1  UNL1        0.3045
      3 N         141.6345  139.3075  159.8584 N.am    1  UNL1       -0.2720
      4 C         140.4042  138.4653  160.0236 C.3     1  UNL1        0.0976
      5 C         139.3739  138.8357  161.0488 C.3     1  UNL1        0.0651
      6 C         139.5738  140.0483  161.9089 C.3     1  UNL1        0.1693
      7 C         140.8040  140.8905  161.7438 C.3     1  UNL1        0.0651
      8 C         141.8344  140.5201  160.7185 C.3     1  UNL1        0.0976
      9 C         142.4649  137.7246  157.9731 C.ar    1  UNL1        0.3042
     10 N         141.3601  137.5211  156.9790 N.ar    1  UNL1       -0.1021
     11 N         141.5471  136.1733  156.3476 N.ar    1  UNL1       -0.1068
     12 C         142.7674  135.5439  156.9514 C.ar    1  UNL1        0.2501
     13 O         143.3346  136.5026  157.9560 O.2     1  UNL1       -0.4122
     14 C         143.3230  134.1929  156.6105 C.ar    1  UNL1        0.0553
     15 C         143.0056  133.5638  155.2863 C.ar    1  UNL1        0.0078
     16 C         143.5612  132.2128  154.9455 C.ar    1  UNL1        0.0372
     17 C         144.4341  131.4910  155.9288 C.ar    1  UNL1        0.1443
     18 C         144.7515  132.1201  157.2529 C.ar    1  UNL1        0.0372
     19 C         144.1959  133.4710  157.5938 C.ar    1  UNL1        0.0078
     20 O         144.9897  130.1399  155.5879 O.3     1  UNL1       -0.4236
     21 C         144.5315  128.9281  156.3437 C.3     1  UNL1        0.5087
     22 F         143.2306  128.9570  157.0899 F       1  UNL1       -0.1550
     23 F         145.3742  127.6872  156.3534 F       1  UNL1       -0.1550
     24 O         138.5434  140.4187  162.9342 O.3     1  UNL1       -0.4791
     25 C         138.9058  140.4352  164.3897 C.ar    1  UNL1        0.1384
     26 C         139.6262  141.6160  164.9698 C.ar    1  UNL1        0.0366
     27 C         139.9885  141.6325  166.4253 C.ar    1  UNL1        0.0002
     28 C         139.6305  140.4682  167.3006 C.ar    1  UNL1       -0.0059
     29 C         138.9101  139.2873  166.7204 C.ar    1  UNL1        0.0002
     30 C         138.5478  139.2708  165.2650 C.ar    1  UNL1        0.0366
     31 C         139.9929  140.4848  168.7561 C.3     1  UNL1        0.0991
     32 N         141.1745  141.2806  169.2258 N.3     1  UNL1       -0.2690
     33 C         141.1228  142.6078  169.9228 C.3     1  UNL1        0.0724
     34 C         142.5316  143.0363  170.2088 C.3     1  UNL1        0.0188
     35 C         143.4539  141.9739  169.6886 C.3     1  UNL1        0.0188
     36 C         142.6151  140.8887  169.0811 C.3     1  UNL1        0.0724
@<TRIPOS>BOND
     1     1     2    2
     2     2     9    1
     3     9    10   ar
     4    10    11   ar
     5    11    12   ar
     6    12    14    1
     7    14    15   ar
     8    15    16   ar
     9    16    17   ar
    10    17    20    1
    11    20    21    1
    12    21    22    1
    13    21    23    1
    14    17    18   ar
    15    18    19   ar
    16    12    13   ar
    17     2     3   am
    18     3     4    1
    19     4     5    1
    20     5     6    1
    21     6    24    1
    22    24    25    1
    23    25    26   ar
    24    26    27   ar
    25    27    28   ar
    26    28    31    1
    27    31    32    1
    28    32    33    1
    29    33    34    1
    30    34    35    1
    31    35    36    1
    32    28    29   ar
    33    29    30   ar
    34     6     7    1
    35     7     8    1
    36    13     9   ar
    37     8     3    1
    38    19    14   ar
    39    30    25   ar
    40    36    32    1
@<TRIPOS>MOLECULE
*****
 36 40 0 0 0
SMALL
GASTEIGER

@<TRIPOS>ATOM
      1 O         140.0291  144.7627  160.2642 O.2     1  UNL1       -0.2647
      2 C         139.5343  143.4439  160.7799 C.2     1  UNL1        0.3045
      3 N         139.3970  142.2775  159.8469 N.am    1  UNL1       -0.2720
      4 C         138.9022  140.9587  160.3627 C.3     1  UNL1        0.0976
      5 C         138.7649  139.7923  159.4297 C.3     1  UNL1        0.0651
      6 C         139.1224  139.9446  157.9809 C.3     1  UNL1        0.1693
      7 C         139.6172  141.2634  157.4651 C.3     1  UNL1        0.0651
      8 C         139.7545  142.4298  158.3981 C.3     1  UNL1        0.0976
      9 C         139.1768  143.2916  162.2287 C.ar    1  UNL1        0.3042
     10 N         138.0157  143.9394  162.9232 N.ar    1  UNL1       -0.1021
     11 N         138.0389  143.5129  164.3611 N.ar    1  UNL1       -0.1068
     12 C         139.2143  142.6015  164.5553 C.ar    1  UNL1        0.2501
     13 O         139.9176  142.4647  163.2374 O.2     1  UNL1       -0.4122
     14 C         139.6160  141.9425  165.8416 C.ar    1  UNL1        0.0553
     15 C         140.4402  142.6946  166.8441 C.ar    1  UNL1        0.0078
     16 C         140.8418  142.0356  168.1303 C.ar    1  UNL1        0.0372
     17 C         140.4193  140.6245  168.4140 C.ar    1  UNL1        0.1443
     18 C         139.5952  139.8725  167.4114 C.ar    1  UNL1        0.0372
     19 C         139.1935  140.5315  166.1252 C.ar    1  UNL1        0.0078
     20 O         140.8210  139.9655  169.7003 O.3     1  UNL1       -0.4236
     21 C         142.2513  139.5757  169.9285 C.3     1  UNL1        0.5087
     22 F         143.3161  140.6307  169.9873 F       1  UNL1       -0.1550
     23 F         142.6170  138.1309  170.0980 F       1  UNL1       -0.1550
     24 O         138.9851  138.7782  157.0478 O.3     1  UNL1       -0.4791
     25 C         140.1529  137.8676  156.8086 C.ar    1  UNL1        0.1384
     26 C         141.3870  137.9932  157.6519 C.ar    1  UNL1        0.0366
     27 C         142.5547  137.0827  157.4126 C.ar    1  UNL1        0.0002
     28 C         142.4884  136.0465  156.3301 C.ar    1  UNL1       -0.0059
     29 C         141.2543  135.9208  155.4868 C.ar    1  UNL1        0.0002
     30 C         140.0865  136.8314  155.7260 C.ar    1  UNL1        0.0366
     31 C         143.6562  135.1360  156.0909 C.3     1  UNL1        0.0991
     32 N         143.5795  133.6946  156.4991 N.3     1  UNL1       -0.2690
     33 C         144.5192  132.9916  157.4331 C.3     1  UNL1        0.0724
     34 C         144.0701  131.5657  157.5562 C.3     1  UNL1        0.0188
     35 C         142.8527  131.3876  156.6981 C.3     1  UNL1        0.0188
     36 C         142.5495  132.7034  156.0448 C.3     1  UNL1        0.0724
@<TRIPOS>BOND
     1     1     2    2
     2     2     9    1
     3     9    10   ar
     4    10    11   ar
     5    11    12   ar
     6    12    14    1
     7    14    15   ar
     8    15    16   ar
     9    16    17   ar
    10    17    20    1
    11    20    21    1
    12    21    22    1
    13    21    23    1
    14    17    18   ar
    15    18    19   ar
    16    12    13   ar
    17     2     3   am
    18     3     4    1
    19     4     5    1
    20     5     6    1
    21     6    24    1
    22    24    25    1
    23    25    26   ar
    24    26    27   ar
    25    27    28   ar
    26    28    31    1
    27    31    32    1
    28    32    33    1
    29    33    34    1
    30    34    35    1
    31    35    36    1
    32    28    29   ar
    33    29    30   ar
    34     6     7    1
    35     7     8    1
    36    13     9   ar
    37     8     3    1
    38    19    14   ar
    39    30    25   ar
    40    36    32    1
@<TRIPOS>MOLECULE
*****
 36 40 0 0 0
SMALL
GASTEIGER

@<TRIPOS>ATOM
      1 O         142.8538  137.4180  159.9821 O.2     1  UNL1       -0.2647
      2 C         142.1532  138.6127  160.5581 C.2     1  UNL1        0.3045
      3 N         142.4299  139.9812  160.0097 N.am    1  UNL1       -0.2720
      4 C         141.7292  141.1759  160.5858 C.3     1  UNL1        0.0976
      5 C         142.0059  142.5442  160.0374 C.3     1  UNL1        0.0651
      6 C         142.9833  142.7180  158.9129 C.3     1  UNL1        0.1693
      7 C         143.6840  141.5234  158.3367 C.3     1  UNL1        0.0651
      8 C         143.4072  140.1549  158.8852 C.3     1  UNL1        0.0976
      9 C         141.1759  138.4389  161.6826 C.ar    1  UNL1        0.3042
     10 N         139.9113  137.6335  161.6352 N.ar    1  UNL1       -0.1021
     11 N         139.2453  137.7368  162.9753 N.ar    1  UNL1       -0.1068
     12 C         140.0983  138.6061  163.8510 C.ar    1  UNL1        0.2501
     13 O         141.2914  139.0400  163.0521 O.2     1  UNL1       -0.4122
     14 C         139.8090  138.9765  165.2755 C.ar    1  UNL1        0.0553
     15 C         138.4268  138.7992  165.8306 C.ar    1  UNL1        0.0078
     16 C         138.1376  139.1696  167.2551 C.ar    1  UNL1        0.0372
     17 C         139.2305  139.7172  168.1244 C.ar    1  UNL1        0.1443
     18 C         140.6126  139.8944  167.5693 C.ar    1  UNL1        0.0372
     19 C         140.9019  139.5241  166.1448 C.ar    1  UNL1        0.0078
     20 O         138.9412  140.0876  169.5489 O.3     1  UNL1       -0.4236
     21 C         139.7264  141.1786  170.2145 C.3     1  UNL1        0.5087
     22 F         140.5185  140.8837  171.4537 F       1  UNL1       -0.1550
     23 F         139.7195  142.5646  169.6409 F       1  UNL1       -0.1550
     24 O         143.2600  144.0865  158.3644 O.3     1  UNL1       -0.4791
     25 C         142.1750  144.8455  157.6597 C.ar    1  UNL1        0.1384
     26 C         142.2610  145.0768  156.1801 C.ar    1  UNL1        0.0366
     27 C         141.1761  145.8358  155.4754 C.ar    1  UNL1        0.0002
     28 C         140.0051  146.3636  156.2501 C.ar    1  UNL1       -0.0059
     29 C         139.9191  146.1324  157.7297 C.ar    1  UNL1        0.0002
     30 C         141.0041  145.3734  158.4345 C.ar    1  UNL1        0.0366
     31 C         138.9202  147.1227  155.5453 C.3     1  UNL1        0.0991
     32 N         139.1402  148.5530  155.1507 N.3     1  UNL1       -0.2690
     33 C         140.0373  149.0359  154.0497 C.3     1  UNL1        0.0724
     34 C         139.9533  150.5329  154.0064 C.3     1  UNL1        0.0188
     35 C         139.0043  150.9752  155.0805 C.3     1  UNL1        0.0188
     36 C         138.5018  149.7515  155.7878 C.3     1  UNL1        0.0724
@<TRIPOS>BOND
     1     1     2    2
     2     2     9    1
     3     9    10   ar
     4    10    11   ar
     5    11    12   ar
     6    12    14    1
     7    14    15   ar
     8    15    16   ar
     9    16    17   ar
    10    17    20    1
    11    20    21    1
    12    21    22    1
    13    21    23    1
    14    17    18   ar
    15    18    19   ar
    16    12    13   ar
    17     2     3   am
    18     3     4    1
    19     4     5    1
    20     5     6    1
    21     6    24    1
    22    24    25    1
    23    25    26   ar
    24    26    27   ar
    25    27    28   ar
    26    28    31    1
    27    31    32    1
    28    32    33    1
    29    33    34    1
    30    34    35    1
    31    35    36    1
    32    28    29   ar
    33    29    30   ar
    34     6     7    1
    35     7     8    1
    36    13     9   ar
    37     8     3    1
    38    19    14   ar
    39    30    25   ar
    40    36    32    1
@<TRIPOS>MOLECULE
*****
 36 40 0 0 0
SMALL
GASTEIGER

@<TRIPOS>ATOM
      1 O         144.6559  142.0713  159.4465 O.2     1  UNL1       -0.2647
      2 C         143.5336  142.8809  160.0252 C.2     1  UNL1        0.3045
      3 N         142.3981  143.3221  159.1500 N.am    1  UNL1       -0.2720
      4 C         141.2758  144.1318  159.7288 C.3     1  UNL1        0.0976
      5 C         140.1404  144.5729  158.8536 C.3     1  UNL1        0.0651
      6 C         140.1272  144.2045  157.3996 C.3     1  UNL1        0.1693
      7 C         141.2495  143.3949  156.8207 C.3     1  UNL1        0.0651
      8 C         142.3850  142.9537  157.6960 C.3     1  UNL1        0.0976
      9 C         143.5468  143.2493  161.4792 C.ar    1  UNL1        0.3042
     10 N         144.4079  144.3004  162.1147 N.ar    1  UNL1       -0.1021
     11 N         144.0945  144.3320  163.5812 N.ar    1  UNL1       -0.1068
     12 C         143.0396  143.3006  163.8521 C.ar    1  UNL1        0.2501
     13 O         142.7011  142.6315  162.5530 O.2     1  UNL1       -0.4122
     14 C         142.4302  142.9923  165.1877 C.ar    1  UNL1        0.0553
     15 C         140.9666  143.2274  165.4165 C.ar    1  UNL1        0.0078
     16 C         140.3572  142.9192  166.7520 C.ar    1  UNL1        0.0372
     17 C         141.2115  142.3758  167.8587 C.ar    1  UNL1        0.1443
     18 C         142.6752  142.1407  167.6300 C.ar    1  UNL1        0.0372
     19 C         143.2845  142.4490  166.2945 C.ar    1  UNL1        0.0078
     20 O         140.6021  142.0676  169.1943 O.3     1  UNL1       -0.4236
     21 C         140.1489  143.1841  170.0876 C.3     1  UNL1        0.5087
     22 F         140.7955  144.5339  169.9879 F       1  UNL1       -0.1550
     23 F         139.0489  142.9509  171.0804 F       1  UNL1       -0.1550
     24 O         138.9917  144.6457  156.5243 O.3     1  UNL1       -0.4791
     25 C         137.9842  143.6448  156.0414 C.ar    1  UNL1        0.1384
     26 C         137.3044  143.8432  154.7191 C.ar    1  UNL1        0.0366
     27 C         136.2969  142.8423  154.2362 C.ar    1  UNL1        0.0002
     28 C         135.9693  141.6430  155.0756 C.ar    1  UNL1       -0.0059
     29 C         136.6491  141.4447  156.3979 C.ar    1  UNL1        0.0002
     30 C         137.6566  142.4456  156.8808 C.ar    1  UNL1        0.0366
     31 C         134.9618  140.6422  154.5926 C.3     1  UNL1        0.0991
     32 N         133.7237  140.3764  155.3966 N.3     1  UNL1       -0.2690
     33 C         133.4921  139.1979  156.2951 C.3     1  UNL1        0.0724
     34 C         132.1251  139.3355  156.8970 C.3     1  UNL1        0.0188
     35 C         131.5118  140.5991  156.3704 C.3     1  UNL1        0.0188
     36 C         132.4998  141.2424  155.4431 C.3     1  UNL1        0.0724
@<TRIPOS>BOND
     1     1     2    2
     2     2     9    1
     3     9    10   ar
     4    10    11   ar
     5    11    12   ar
     6    12    14    1
     7    14    15   ar
     8    15    16   ar
     9    16    17   ar
    10    17    20    1
    11    20    21    1
    12    21    22    1
    13    21    23    1
    14    17    18   ar
    15    18    19   ar
    16    12    13   ar
    17     2     3   am
    18     3     4    1
    19     4     5    1
    20     5     6    1
    21     6    24    1
    22    24    25    1
    23    25    26   ar
    24    26    27   ar
    25    27    28   ar
    26    28    31    1
    27    31    32    1
    28    32    33    1
    29    33    34    1
    30    34    35    1
    31    35    36    1
    32    28    29   ar
    33    29    30   ar
    34     6     7    1
    35     7     8    1
    36    13     9   ar
    37     8     3    1
    38    19    14   ar
    39    30    25   ar
    40    36    32    1
@<TRIPOS>MOLECULE
*****
 36 40 0 0 0
SMALL
GASTEIGER

@<TRIPOS>ATOM
      1 O         137.5859  139.5369  160.8355 O.2     1  UNL1       -0.2647
      2 C         138.9349  139.0269  161.2478 C.2     1  UNL1        0.3045
      3 N         140.0059  138.8211  160.2179 N.am    1  UNL1       -0.2720
      4 C         141.3550  138.3111  160.6303 C.3     1  UNL1        0.0976
      5 C         142.4258  138.1054  159.6004 C.3     1  UNL1        0.0651
      6 C         142.1477  138.4096  158.1581 C.3     1  UNL1        0.1693
      7 C         140.7987  138.9196  157.7457 C.3     1  UNL1        0.0651
      8 C         139.7278  139.1254  158.7756 C.3     1  UNL1        0.0976
      9 C         139.2130  138.7227  162.6901 C.ar    1  UNL1        0.3042
     10 N         138.8873  137.4419  163.3998 N.ar    1  UNL1       -0.1021
     11 N         139.3386  137.5735  164.8242 N.ar    1  UNL1       -0.1068
     12 C         139.9433  138.9355  164.9949 C.ar    1  UNL1        0.2501
     13 O         139.8657  139.6457  163.6759 O.2     1  UNL1       -0.4122
     14 C         140.5237  139.4900  166.2621 C.ar    1  UNL1        0.0553
     15 C         141.9946  139.3678  166.5296 C.ar    1  UNL1        0.0078
     16 C         142.5750  139.9223  167.7967 C.ar    1  UNL1        0.0372
     17 C         141.6845  140.5990  168.7963 C.ar    1  UNL1        0.1443
     18 C         140.2136  140.7213  168.5287 C.ar    1  UNL1        0.0372
     19 C         139.6333  140.1667  167.2616 C.ar    1  UNL1        0.0078
     20 O         142.2649  141.1536  170.0635 O.3     1  UNL1       -0.4236
     21 C         143.0208  142.4489  170.0382 C.3     1  UNL1        0.5087
     22 F         144.4934  142.4525  169.7526 F       1  UNL1       -0.1550
     23 F         142.3042  143.7407  170.2986 F       1  UNL1       -0.1550
     24 O         143.2187  138.2039  157.1282 O.3     1  UNL1       -0.4791
     25 C         144.1008  139.3479  156.7246 C.ar    1  UNL1        0.1384
     26 C         144.8607  139.2895  155.4326 C.ar    1  UNL1        0.0366
     27 C         145.7429  140.4335  155.0290 C.ar    1  UNL1        0.0002
     28 C         145.8651  141.6360  155.9173 C.ar    1  UNL1       -0.0059
     29 C         145.1053  141.6945  157.2093 C.ar    1  UNL1        0.0002
     30 C         144.2231  140.5504  157.6129 C.ar    1  UNL1        0.0366
     31 C         146.7473  142.7800  155.5136 C.3     1  UNL1        0.0991
     32 N         148.0982  142.5121  154.9193 N.3     1  UNL1       -0.2690
     33 C         149.2201  141.7672  155.5800 C.3     1  UNL1        0.0724
     34 C         150.3796  141.7367  154.6290 C.3     1  UNL1        0.0188
     35 C         149.9744  142.4627  153.3805 C.3     1  UNL1        0.0188
     36 C         148.5644  142.9419  153.5599 C.3     1  UNL1        0.0724
@<TRIPOS>BOND
     1     1     2    2
     2     2     9    1
     3     9    10   ar
     4    10    11   ar
     5    11    12   ar
     6    12    14    1
     7    14    15   ar
     8    15    16   ar
     9    16    17   ar
    10    17    20    1
    11    20    21    1
    12    21    22    1
    13    21    23    1
    14    17    18   ar
    15    18    19   ar
    16    12    13   ar
    17     2     3   am
    18     3     4    1
    19     4     5    1
    20     5     6    1
    21     6    24    1
    22    24    25    1
    23    25    26   ar
    24    26    27   ar
    25    27    28   ar
    26    28    31    1
    27    31    32    1
    28    32    33    1
    29    33    34    1
    30    34    35    1
    31    35    36    1
    32    28    29   ar
    33    29    30   ar
    34     6     7    1
    35     7     8    1
    36    13     9   ar
    37     8     3    1
    38    19    14   ar
    39    30    25   ar
    40    36    32    1
@<TRIPOS>MOLECULE
*****
 36 40 0 0 0
SMALL
GASTEIGER

@<TRIPOS>ATOM
      1 O         140.3561  145.5991  159.0020 O.2     1  UNL1       -0.2647
      2 C         139.9617  144.3743  159.7730 C.2     1  UNL1        0.3045
      3 N         139.5899  143.1169  159.0446 N.am    1  UNL1       -0.2720
      4 C         139.1956  141.8921  159.8158 C.3     1  UNL1        0.0976
      5 C         138.8237  140.6347  159.0874 C.3     1  UNL1        0.0651
      6 C         138.8462  140.6020  157.5880 C.3     1  UNL1        0.1693
      7 C         139.2405  141.8267  156.8168 C.3     1  UNL1        0.0651
      8 C         139.6124  143.0841  157.5452 C.3     1  UNL1        0.0976
      9 C         139.9393  144.4071  161.2725 C.ar    1  UNL1        0.3042
     10 N         139.0368  145.2515  162.1226 N.ar    1  UNL1       -0.1021
     11 N         139.3551  144.9674  163.5606 N.ar    1  UNL1       -0.1068
     12 C         140.4542  143.9475  163.5994 C.ar    1  UNL1        0.2501
     13 O         140.8153  143.6012  162.1852 O.2     1  UNL1       -0.4122
     14 C         141.0822  143.3744  164.8353 C.ar    1  UNL1        0.0553
     15 C         142.5482  143.0579  164.8539 C.ar    1  UNL1        0.0078
     16 C         143.1761  142.4849  166.0898 C.ar    1  UNL1        0.0372
     17 C         142.3379  142.2284  167.3070 C.ar    1  UNL1        0.1443
     18 C         140.8718  142.5449  167.2883 C.ar    1  UNL1        0.0372
     19 C         140.2439  143.1179  166.0525 C.ar    1  UNL1        0.0078
     20 O         142.9658  141.6553  168.5429 O.3     1  UNL1       -0.4236
     21 C         143.4624  142.5685  169.6243 C.3     1  UNL1        0.5087
     22 F         144.9036  142.5267  170.0381 F       1  UNL1       -0.1550
     23 F         142.5178  143.5235  170.2919 F       1  UNL1       -0.1550
     24 O         138.4744  139.3445  156.8596 O.3     1  UNL1       -0.4791
     25 C         139.5404  138.3723  156.4493 C.ar    1  UNL1        0.1384
     26 C         139.2468  137.3325  155.4088 C.ar    1  UNL1        0.0366
     27 C         140.3128  136.3602  154.9985 C.ar    1  UNL1        0.0002
     28 C         141.6724  136.4278  155.6287 C.ar    1  UNL1       -0.0059
     29 C         141.9659  137.4676  156.6692 C.ar    1  UNL1        0.0002
     30 C         140.8999  138.4398  157.0795 C.ar    1  UNL1        0.0366
     31 C         142.7383  135.4554  155.2183 C.3     1  UNL1        0.0991
     32 N         142.6562  134.0233  155.6566 N.3     1  UNL1       -0.2690
     33 C         141.8977  132.9310  154.9627 C.3     1  UNL1        0.0724
     34 C         142.0909  131.6646  155.7430 C.3     1  UNL1        0.0188
     35 C         142.9688  131.9742  156.9192 C.3     1  UNL1        0.0188
     36 C         143.3182  133.4320  156.8658 C.3     1  UNL1        0.0724
@<TRIPOS>BOND
     1     1     2    2
     2     2     9    1
     3     9    10   ar
     4    10    11   ar
     5    11    12   ar
     6    12    14    1
     7    14    15   ar
     8    15    16   ar
     9    16    17   ar
    10    17    20    1
    11    20    21    1
    12    21    22    1
    13    21    23    1
    14    17    18   ar
    15    18    19   ar
    16    12    13   ar
    17     2     3   am
    18     3     4    1
    19     4     5    1
    20     5     6    1
    21     6    24    1
    22    24    25    1
    23    25    26   ar
    24    26    27   ar
    25    27    28   ar
    26    28    31    1
    27    31    32    1
    28    32    33    1
    29    33    34    1
    30    34    35    1
    31    35    36    1
    32    28    29   ar
    33    29    30   ar
    34     6     7    1
    35     7     8    1
    36    13     9   ar
    37     8     3    1
    38    19    14   ar
    39    30    25   ar
    40    36    32    1
