@<TRIPOS>MOLECULE
*****
 34 38 0 0 0
SMALL
GASTEIGER

@<TRIPOS>ATOM
      1 C         141.6312  141.8208  164.9086 C.3     1  UNL1        0.0048
      2 C         140.5294  140.8049  164.9728 C.3     1  UNL1        0.0249
      3 C         139.9514  140.4082  166.2988 C.2     1  UNL1       -0.0078
      4 C         138.8496  139.3923  166.3630 C.2     1  UNL1        0.0546
      5 N         138.4794  139.2005  167.8039 N.2     1  UNL1       -0.2540
      6 C         139.3523  140.0978  168.6302 C.2     1  UNL1        0.0626
      7 C         139.4363  140.3317  170.1095 C.3     1  UNL1        0.0716
      8 C         140.4301  141.3119  170.6585 C.2     1  UNL1       -0.0159
      9 C         141.3398  142.0583  169.7284 C.2     1  UNL1        0.0676
     10 C         141.2558  141.8244  168.2491 C.2     1  UNL1        0.0044
     11 C         140.2621  140.8442  167.7000 C.2     1  UNL1        0.0110
     12 C         138.3258  138.7732  165.1011 C.3     1  UNL1        0.0456
     13 C         138.9038  139.1700  163.7750 C.3     1  UNL1        0.0089
     14 C         138.3801  138.5509  162.5131 C.3     1  UNL1        0.0178
     15 C         138.9581  138.9476  161.1870 C.3     1  UNL1        0.0721
     16 N         140.0598  139.9635  161.1229 N.3     1  UNL1       -0.2727
     17 C         140.5837  140.5826  162.3847 C.3     1  UNL1        0.0724
     18 C         140.0056  140.1858  163.7109 C.3     1  UNL1        0.0205
     19 C         142.3336  143.0386  170.2775 C.3     1  UNL1        0.4183
     20 F         143.3274  144.0187  170.8266 F       1  UNL1       -0.1659
     21 F         141.3233  144.1389  170.1420 F       1  UNL1       -0.1659
     22 F         143.3440  141.9383  170.4130 F       1  UNL1       -0.1659
     23 C         140.6379  140.3603  159.7968 C.3     1  UNL1        0.0721
     24 C         142.1189  140.5477  159.6500 C.3     1  UNL1        0.0177
     25 C         143.0575  139.4502  160.0553 C.3     1  UNL1        0.0068
     26 C         143.6468  139.4385  161.4346 C.3     1  UNL1        0.0369
     27 C         144.0575  140.8101  160.9877 C.3     1  UNL1        0.0373
     28 C         144.8437  141.6952  161.9088 C.3     1  UNL1        0.1425
     29 O         145.2193  141.2084  163.2771 O.3     1  UNL1       -0.3538
     30 C         144.8087  139.8367  163.7241 C.3     1  UNL1        0.1425
     31 C         144.0225  138.9517  162.8029 C.3     1  UNL1        0.0373
     32 C         143.0316  138.0708  161.4026 C.2     1  UNL1        0.0498
     33 O         142.2211  137.5856  162.5677 O.co2   1  UNL1       -0.5492
     34 O         143.2268  137.1884  160.2054 O.co2   1  UNL1       -0.5492
@<TRIPOS>UNITY_ATOM_ATTR
33 1
charge -1
@<TRIPOS>BOND
     1     2     1    1
     2     2     3    1
     3     3     4    2
     4     4     5    1
     5     5     6    2
     6     6     7    1
     7     7     8    1
     8     8     9    2
     9     9    19    1
    10    19    20    1
    11    19    21    1
    12    19    22    1
    13     9    10    1
    14    10    11    2
    15     4    12    1
    16    13    12    1
    17    13    14    1
    18    14    15    1
    19    15    16    1
    20    16    23    1
    21    23    24    1
    22    24    25    1
    23    25    26    1
    24    26    32    1
    25    32    33   ar
    26    32    34   ar
    27    26    27    1
    28    27    28    1
    29    28    29    1
    30    29    30    1
    31    30    31    1
    32    16    17    1
    33    18    17    1
    34    18     2    1
    35    11     3    1
    36    18    13    1
    37    11     6    1
    38    31    26    1
@<TRIPOS>MOLECULE
*****
 34 38 0 0 0
SMALL
GASTEIGER

@<TRIPOS>ATOM
      1 C         141.6362  141.6276  164.8923 C.3     1  UNL1        0.0048
      2 C         140.5536  140.5921  164.9691 C.3     1  UNL1        0.0249
      3 C         139.9383  140.2472  166.2929 C.2     1  UNL1       -0.0078
      4 C         138.8557  139.2117  166.3697 C.2     1  UNL1        0.0546
      5 N         138.4399  139.0816  167.8050 N.2     1  UNL1       -0.2540
      6 C         139.2653  140.0366  168.6152 C.2     1  UNL1        0.0626
      7 C         139.2933  140.3433  170.0833 C.3     1  UNL1        0.0716
      8 C         140.2475  141.3705  170.6167 C.2     1  UNL1       -0.0159
      9 C         141.1735  142.0909  169.6822 C.2     1  UNL1        0.0676
     10 C         141.1455  141.7842  168.2142 C.2     1  UNL1        0.0044
     11 C         140.1914  140.7570  167.6807 C.2     1  UNL1        0.0110
     12 C         138.3886  138.5211  165.1227 C.3     1  UNL1        0.0456
     13 C         139.0040  138.8660  163.7990 C.3     1  UNL1        0.0089
     14 C         138.5368  138.1754  162.5520 C.3     1  UNL1        0.0178
     15 C         139.1522  138.5203  161.2283 C.3     1  UNL1        0.0721
     16 N         140.2347  139.5558  161.1515 N.3     1  UNL1       -0.2727
     17 C         140.7019  140.2464  162.3984 C.3     1  UNL1        0.0724
     18 C         140.0865  139.9015  163.7222 C.3     1  UNL1        0.0205
     19 C         142.1277  143.1181  170.2157 C.3     1  UNL1        0.4183
     20 F         143.0817  144.1452  170.7492 F       1  UNL1       -0.1659
     21 F         143.1626  142.0515  170.4184 F       1  UNL1       -0.1659
     22 F         141.0927  144.1847  170.0130 F       1  UNL1       -0.1659
     23 C         140.8501  139.9007  159.8277 C.3     1  UNL1        0.0721
     24 C         141.3177  141.3006  159.5599 C.3     1  UNL1        0.0177
     25 C         140.3296  142.4288  159.5321 C.3     1  UNL1        0.0068
     26 C         140.0407  143.2038  160.7834 C.3     1  UNL1        0.0369
     27 C         141.5251  143.3996  160.6928 C.3     1  UNL1        0.0373
     28 C         142.2399  144.2088  161.7340 C.3     1  UNL1        0.1425
     29 O         141.4702  144.8224  162.8659 O.3     1  UNL1       -0.3538
     30 C         139.9859  144.6266  162.9567 C.3     1  UNL1        0.1425
     31 C         139.2711  143.8173  161.9154 C.3     1  UNL1        0.0373
     32 C         138.6567  142.7389  160.4395 C.2     1  UNL1        0.0498
     33 O         138.1548  142.8552  159.0308 O.co2   1  UNL1       -0.5492
     34 O         137.7744  142.1578  161.5044 O.co2   1  UNL1       -0.5492
@<TRIPOS>UNITY_ATOM_ATTR
33 1
charge -1
@<TRIPOS>BOND
     1     2     1    1
     2     2     3    1
     3     3     4    2
     4     4     5    1
     5     5     6    2
     6     6     7    1
     7     7     8    1
     8     8     9    2
     9     9    19    1
    10    19    20    1
    11    19    21    1
    12    19    22    1
    13     9    10    1
    14    10    11    2
    15     4    12    1
    16    13    12    1
    17    13    14    1
    18    14    15    1
    19    15    16    1
    20    16    23    1
    21    23    24    1
    22    24    25    1
    23    25    26    1
    24    26    32    1
    25    32    33   ar
    26    32    34   ar
    27    26    27    1
    28    27    28    1
    29    28    29    1
    30    29    30    1
    31    30    31    1
    32    16    17    1
    33    18    17    1
    34    18     2    1
    35    11     3    1
    36    18    13    1
    37    11     6    1
    38    31    26    1
@<TRIPOS>MOLECULE
*****
 34 38 0 0 0
SMALL
GASTEIGER

@<TRIPOS>ATOM
      1 C         141.8205  141.4335  164.9397 C.3     1  UNL1        0.0048
      2 C         140.6984  140.4397  164.9998 C.3     1  UNL1        0.0249
      3 C         140.0137  140.1596  166.3046 C.2     1  UNL1       -0.0078
      4 C         138.8917  139.1659  166.3647 C.2     1  UNL1        0.0546
      5 N         138.4091  139.0969  167.7832 N.2     1  UNL1       -0.2540
      6 C         139.2328  140.0481  168.5999 C.2     1  UNL1        0.0626
      7 C         139.2079  140.4009  170.0576 C.3     1  UNL1        0.0716
      8 C         140.1747  141.4106  170.6014 C.2     1  UNL1       -0.0159
      9 C         141.1665  142.0674  169.6875 C.2     1  UNL1        0.0676
     10 C         141.1913  141.7145  168.2298 C.2     1  UNL1        0.0044
     11 C         140.2245  140.7049  167.6860 C.2     1  UNL1        0.0110
     12 C         138.4545  138.4522  165.1199 C.3     1  UNL1        0.0456
     13 C         139.1392  138.7322  163.8150 C.3     1  UNL1        0.0089
     14 C         138.7020  138.0185  162.5702 C.3     1  UNL1        0.0178
     15 C         139.3867  138.2986  161.2654 C.3     1  UNL1        0.0721
     16 N         140.5087  139.2923  161.2053 N.3     1  UNL1       -0.2727
     17 C         140.9460  140.0061  162.4501 C.3     1  UNL1        0.0724
     18 C         140.2612  139.7260  163.7550 C.3     1  UNL1        0.0205
     19 C         142.1333  143.0771  170.2314 C.3     1  UNL1        0.4183
     20 F         143.1002  144.0867  170.7753 F       1  UNL1       -0.1659
     21 F         141.1206  144.1625  170.0167 F       1  UNL1       -0.1659
     22 F         143.1460  141.9916  170.4461 F       1  UNL1       -0.1659
     23 C         141.1935  139.5724  159.9004 C.3     1  UNL1        0.0721
     24 C         142.1125  140.7511  159.7735 C.3     1  UNL1        0.0177
     25 C         143.5871  140.5790  159.9882 C.3     1  UNL1        0.0068
     26 C         144.2575  141.2412  161.1552 C.3     1  UNL1        0.0369
     27 C         144.1202  139.8468  161.6906 C.3     1  UNL1        0.0373
     28 C         144.6201  139.5190  163.0663 C.3     1  UNL1        0.1425
     29 O         145.2574  140.5858  163.9066 O.3     1  UNL1       -0.3538
     30 C         145.3947  141.9802  163.3712 C.3     1  UNL1        0.1425
     31 C         144.8947  142.3079  161.9954 C.3     1  UNL1        0.0373
     32 C         144.1620  142.4056  160.2144 C.2     1  UNL1        0.0498
     33 O         144.8259  142.3409  158.8709 O.co2   1  UNL1       -0.5492
     34 O         143.4025  143.6349  160.6172 O.co2   1  UNL1       -0.5492
@<TRIPOS>UNITY_ATOM_ATTR
33 1
charge -1
@<TRIPOS>BOND
     1     2     1    1
     2     2     3    1
     3     3     4    2
     4     4     5    1
     5     5     6    2
     6     6     7    1
     7     7     8    1
     8     8     9    2
     9     9    19    1
    10    19    20    1
    11    19    21    1
    12    19    22    1
    13     9    10    1
    14    10    11    2
    15     4    12    1
    16    13    12    1
    17    13    14    1
    18    14    15    1
    19    15    16    1
    20    16    23    1
    21    23    24    1
    22    24    25    1
    23    25    26    1
    24    26    32    1
    25    32    33   ar
    26    32    34   ar
    27    26    27    1
    28    27    28    1
    29    28    29    1
    30    29    30    1
    31    30    31    1
    32    16    17    1
    33    18    17    1
    34    18     2    1
    35    11     3    1
    36    18    13    1
    37    11     6    1
    38    31    26    1
@<TRIPOS>MOLECULE
*****
 34 38 0 0 0
SMALL
GASTEIGER

@<TRIPOS>ATOM
      1 C         141.1487  142.6284  164.9703 C.3     1  UNL1        0.0048
      2 C         142.0539  141.4442  164.8019 C.3     1  UNL1        0.0249
      3 C         142.3716  140.5698  165.9786 C.2     1  UNL1       -0.0078
      4 C         143.2767  139.3855  165.8102 C.2     1  UNL1        0.0546
      5 N         143.4083  138.7096  167.1428 N.2     1  UNL1       -0.2540
      6 C         142.5845  139.4761  168.1347 C.2     1  UNL1        0.0626
      7 C         142.3350  139.2756  169.6002 C.3     1  UNL1        0.0716
      8 C         141.4448  140.2249  170.3460 C.2     1  UNL1       -0.0159
      9 C         140.8040  141.3745  169.6265 C.2     1  UNL1        0.0676
     10 C         141.0535  141.5750  168.1611 C.2     1  UNL1        0.0044
     11 C         141.9437  140.6257  167.4152 C.2     1  UNL1        0.0110
     12 C         143.8642  139.0757  164.4652 C.3     1  UNL1        0.0456
     13 C         143.5465  139.9501  163.2886 C.3     1  UNL1        0.0089
     14 C         144.1339  139.6403  161.9436 C.3     1  UNL1        0.0178
     15 C         143.8162  140.5147  160.7670 C.3     1  UNL1        0.0721
     16 N         142.9111  141.6989  160.9354 N.3     1  UNL1       -0.2727
     17 C         142.3236  142.0088  162.2803 C.3     1  UNL1        0.0724
     18 C         142.6413  141.1343  163.4570 C.3     1  UNL1        0.0205
     19 C         139.9138  142.3238  170.3725 C.3     1  UNL1        0.4183
     20 F         139.0235  143.2730  171.1184 F       1  UNL1       -0.1659
     21 F         141.0373  143.3143  170.4530 F       1  UNL1       -0.1659
     22 F         138.7902  141.3333  170.2920 F       1  UNL1       -0.1659
     23 C         142.5934  142.5734  159.7587 C.3     1  UNL1        0.0721
     24 C         141.1654  142.8172  159.3693 C.3     1  UNL1        0.0177
     25 C         140.4217  143.9879  159.9404 C.3     1  UNL1        0.0068
     26 C         139.4792  143.7893  161.0901 C.3     1  UNL1        0.0369
     27 C         139.2060  142.5375  160.3102 C.3     1  UNL1        0.0373
     28 C         138.1988  141.5458  160.8122 C.3     1  UNL1        0.1425
     29 O         137.4648  141.8059  162.0943 O.3     1  UNL1       -0.3538
     30 C         137.7379  143.0577  162.8743 C.3     1  UNL1        0.1425
     31 C         138.7452  144.0494  162.3722 C.3     1  UNL1        0.0373
     32 C         140.0797  145.1101  161.4708 C.2     1  UNL1        0.0498
     33 O         141.3808  145.1556  162.2157 O.co2   1  UNL1       -0.5492
     34 O         139.3791  146.3855  161.1064 O.co2   1  UNL1       -0.5492
@<TRIPOS>UNITY_ATOM_ATTR
33 1
charge -1
@<TRIPOS>BOND
     1     2     1    1
     2     2     3    1
     3     3     4    2
     4     4     5    1
     5     5     6    2
     6     6     7    1
     7     7     8    1
     8     8     9    2
     9     9    19    1
    10    19    20    1
    11    19    21    1
    12    19    22    1
    13     9    10    1
    14    10    11    2
    15     4    12    1
    16    13    12    1
    17    13    14    1
    18    14    15    1
    19    15    16    1
    20    16    23    1
    21    23    24    1
    22    24    25    1
    23    25    26    1
    24    26    32    1
    25    32    33   ar
    26    32    34   ar
    27    26    27    1
    28    27    28    1
    29    28    29    1
    30    29    30    1
    31    30    31    1
    32    16    17    1
    33    18    17    1
    34    18     2    1
    35    11     3    1
    36    18    13    1
    37    11     6    1
    38    31    26    1
@<TRIPOS>MOLECULE
*****
 34 38 0 0 0
SMALL
GASTEIGER

@<TRIPOS>ATOM
      1 C         140.2281  141.1647  164.1075 C.3     1  UNL1        0.0048
      2 C         141.5849  141.8041  164.0941 C.3     1  UNL1        0.0249
      3 C         142.2680  142.1412  165.3862 C.2     1  UNL1       -0.0078
      4 C         143.6249  142.7807  165.3727 C.2     1  UNL1        0.0546
      5 N         144.0493  142.9973  166.7950 N.2     1  UNL1       -0.2540
      6 C         142.9548  142.4918  167.6875 C.2     1  UNL1        0.0626
      7 C         142.8184  142.4449  169.1806 C.3     1  UNL1        0.0716
      8 C         141.5811  141.8690  169.8029 C.2     1  UNL1       -0.0159
      9 C         140.4802  141.3399  168.9322 C.2     1  UNL1        0.0676
     10 C         140.6166  141.3867  167.4392 C.2     1  UNL1        0.0044
     11 C         141.8539  141.9627  166.8168 C.2     1  UNL1        0.0110
     12 C         144.2986  143.0830  164.0671 C.3     1  UNL1        0.0456
     13 C         143.6155  142.7459  162.7749 C.3     1  UNL1        0.0089
     14 C         144.2892  143.0482  161.4692 C.3     1  UNL1        0.0178
     15 C         143.6060  142.7111  160.1771 C.3     1  UNL1        0.0721
     16 N         142.2492  142.0717  160.1906 N.3     1  UNL1       -0.2727
     17 C         141.5755  141.7694  161.4962 C.3     1  UNL1        0.0724
     18 C         142.2586  142.1065  162.7884 C.3     1  UNL1        0.0205
     19 C         139.2429  140.7639  169.5546 C.3     1  UNL1        0.4183
     20 F         138.0056  140.1880  170.1770 F       1  UNL1       -0.1659
     21 F         139.3472  139.5680  168.6553 F       1  UNL1       -0.1659
     22 F         139.1386  141.9598  170.4539 F       1  UNL1       -0.1659
     23 C         141.5661  141.7346  158.8984 C.3     1  UNL1        0.0721
     24 C         140.6963  140.5160  158.8054 C.3     1  UNL1        0.0177
     25 C         141.3030  139.1501  158.9328 C.3     1  UNL1        0.0068
     26 C         141.4600  138.5224  160.2860 C.3     1  UNL1        0.0369
     27 C         139.9687  138.6767  160.2420 C.3     1  UNL1        0.0373
     28 C         139.1333  138.2255  161.4032 C.3     1  UNL1        0.1425
     29 O         139.7893  137.6198  162.6085 O.3     1  UNL1       -0.3538
     30 C         141.2807  137.4654  162.6526 C.3     1  UNL1        0.1425
     31 C         142.1160  137.9167  161.4913 C.3     1  UNL1        0.0373
     32 C         142.8969  138.5860  159.8601 C.2     1  UNL1        0.0498
     33 O         143.9428  139.0706  160.8198 O.co2   1  UNL1       -0.5492
     34 O         143.2878  138.1650  158.4744 O.co2   1  UNL1       -0.5492
@<TRIPOS>UNITY_ATOM_ATTR
33 1
charge -1
@<TRIPOS>BOND
     1     2     1    1
     2     2     3    1
     3     3     4    2
     4     4     5    1
     5     5     6    2
     6     6     7    1
     7     7     8    1
     8     8     9    2
     9     9    19    1
    10    19    20    1
    11    19    21    1
    12    19    22    1
    13     9    10    1
    14    10    11    2
    15     4    12    1
    16    13    12    1
    17    13    14    1
    18    14    15    1
    19    15    16    1
    20    16    23    1
    21    23    24    1
    22    24    25    1
    23    25    26    1
    24    26    32    1
    25    32    33   ar
    26    32    34   ar
    27    26    27    1
    28    27    28    1
    29    28    29    1
    30    29    30    1
    31    30    31    1
    32    16    17    1
    33    18    17    1
    34    18     2    1
    35    11     3    1
    36    18    13    1
    37    11     6    1
    38    31    26    1
@<TRIPOS>MOLECULE
*****
 34 38 0 0 0
SMALL
GASTEIGER

@<TRIPOS>ATOM
      1 C         140.5554  140.9655  164.7356 C.3     1  UNL1        0.0048
      2 C         141.8595  141.7051  164.7877 C.3     1  UNL1        0.0249
      3 C         142.4793  142.0401  166.1119 C.2     1  UNL1       -0.0078
      4 C         143.7833  142.7796  166.1640 C.2     1  UNL1        0.0546
      5 N         144.1508  142.9700  167.6058 N.2     1  UNL1       -0.2540
      6 C         143.0740  142.3482  168.4447 C.2     1  UNL1        0.0626
      7 C         142.9007  142.2311  169.9300 C.3     1  UNL1        0.0716
      8 C         141.6944  141.5392  170.4921 C.2     1  UNL1       -0.0159
      9 C         140.6613  140.9645  169.5688 C.2     1  UNL1        0.0676
     10 C         140.8345  141.0816  168.0835 C.2     1  UNL1        0.0044
     11 C         142.0409  141.7735  167.5215 C.2     1  UNL1        0.0110
     12 C         144.4675  143.1841  164.8919 C.3     1  UNL1        0.0456
     13 C         143.8477  142.8490  163.5677 C.3     1  UNL1        0.0089
     14 C         144.5319  143.2535  162.2955 C.3     1  UNL1        0.0178
     15 C         143.9121  142.9184  160.9713 C.3     1  UNL1        0.0721
     16 N         142.6081  142.1789  160.9192 N.3     1  UNL1       -0.2727
     17 C         141.9238  141.7744  162.1913 C.3     1  UNL1        0.0724
     18 C         142.5437  142.1095  163.5156 C.3     1  UNL1        0.0205
     19 C         139.4548  140.2726  170.1310 C.3     1  UNL1        0.4183
     20 F         138.2485  139.5808  170.6931 F       1  UNL1       -0.1659
     21 F         138.8069  140.3036  168.7786 F       1  UNL1       -0.1659
     22 F         140.1028  140.2417  171.4834 F       1  UNL1       -0.1659
     23 C         141.9883  141.8438  159.5949 C.3     1  UNL1        0.0721
     24 C         140.5104  142.0060  159.3961 C.3     1  UNL1        0.0177
     25 C         139.8515  143.3174  159.7058 C.3     1  UNL1        0.0068
     26 C         139.2838  143.5675  161.0715 C.3     1  UNL1        0.0369
     27 C         138.6648  142.2344  160.7724 C.3     1  UNL1        0.0373
     28 C         137.7617  141.5841  161.7781 C.3     1  UNL1        0.1425
     29 O         137.4775  142.2671  163.0830 O.3     1  UNL1       -0.3538
     30 C         138.0964  143.6003  163.3822 C.3     1  UNL1        0.1425
     31 C         138.9996  144.2505  162.3765 C.3     1  UNL1        0.0373
     32 C         140.0999  144.8138  160.8964 C.2     1  UNL1        0.0498
     33 O         141.1622  145.1615  161.8967 O.co2   1  UNL1       -0.5492
     34 O         139.8537  145.7126  159.7209 O.co2   1  UNL1       -0.5492
@<TRIPOS>UNITY_ATOM_ATTR
33 1
charge -1
@<TRIPOS>BOND
     1     2     1    1
     2     2     3    1
     3     3     4    2
     4     4     5    1
     5     5     6    2
     6     6     7    1
     7     7     8    1
     8     8     9    2
     9     9    19    1
    10    19    20    1
    11    19    21    1
    12    19    22    1
    13     9    10    1
    14    10    11    2
    15     4    12    1
    16    13    12    1
    17    13    14    1
    18    14    15    1
    19    15    16    1
    20    16    23    1
    21    23    24    1
    22    24    25    1
    23    25    26    1
    24    26    32    1
    25    32    33   ar
    26    32    34   ar
    27    26    27    1
    28    27    28    1
    29    28    29    1
    30    29    30    1
    31    30    31    1
    32    16    17    1
    33    18    17    1
    34    18     2    1
    35    11     3    1
    36    18    13    1
    37    11     6    1
    38    31    26    1
@<TRIPOS>MOLECULE
*****
 34 38 0 0 0
SMALL
GASTEIGER

@<TRIPOS>ATOM
      1 C         140.7690  142.0942  165.0644 C.3     1  UNL1        0.0048
      2 C         141.6786  140.9022  165.0202 C.3     1  UNL1        0.0249
      3 C         142.1301  140.2556  166.2961 C.2     1  UNL1       -0.0078
      4 C         143.0397  139.0637  166.2518 C.2     1  UNL1        0.0546
      5 N         143.3171  138.6397  167.6637 N.2     1  UNL1       -0.2540
      6 C         142.5789  139.5695  168.5805 C.2     1  UNL1        0.0626
      7 C         142.4800  139.6358  170.0757 C.3     1  UNL1        0.0716
      8 C         141.6474  140.7008  170.7257 C.2     1  UNL1       -0.0159
      9 C         140.9137  141.6995  169.8805 C.2     1  UNL1        0.0676
     10 C         141.0127  141.6332  168.3853 C.2     1  UNL1        0.0044
     11 C         141.8453  140.5682  167.7353 C.2     1  UNL1        0.0110
     12 C         143.4979  138.5185  164.9317 C.3     1  UNL1        0.0456
     13 C         143.0465  139.1652  163.6558 C.3     1  UNL1        0.0089
     14 C         143.5047  138.6200  162.3356 C.3     1  UNL1        0.0178
     15 C         143.0533  139.2666  161.0597 C.3     1  UNL1        0.0721
     16 N         142.1436  140.4585  161.1039 N.3     1  UNL1       -0.2727
     17 C         141.6854  141.0038  162.4240 C.3     1  UNL1        0.0724
     18 C         142.1369  140.3570  163.7000 C.3     1  UNL1        0.0205
     19 C         140.0811  142.7645  170.5306 C.3     1  UNL1        0.4183
     20 F         139.2486  143.8295  171.1806 F       1  UNL1       -0.1659
     21 F         140.2768  142.1042  171.8631 F       1  UNL1       -0.1659
     22 F         139.8854  143.4248  169.1981 F       1  UNL1       -0.1659
     23 C         141.6921  141.1052  159.8280 C.3     1  UNL1        0.0721
     24 C         140.8702  142.3592  159.8727 C.3     1  UNL1        0.0177
     25 C         141.5415  143.6905  160.0363 C.3     1  UNL1        0.0068
     26 C         141.5081  144.3893  161.3630 C.3     1  UNL1        0.0369
     27 C         142.9127  143.8634  161.3811 C.3     1  UNL1        0.0373
     28 C         143.8001  144.1346  162.5596 C.3     1  UNL1        0.1425
     29 O         143.2828  144.9319  163.7202 O.3     1  UNL1       -0.3538
     30 C         141.8781  145.4579  163.7022 C.3     1  UNL1        0.1425
     31 C         140.9908  145.1866  162.5236 C.3     1  UNL1        0.0373
     32 C         140.1151  144.6726  160.8842 C.2     1  UNL1        0.0498
     33 O         139.9002  145.4575  159.6241 O.co2   1  UNL1       -0.5492
     34 O         138.9369  144.1711  161.6655 O.co2   1  UNL1       -0.5492
@<TRIPOS>UNITY_ATOM_ATTR
33 1
charge -1
@<TRIPOS>BOND
     1     2     1    1
     2     2     3    1
     3     3     4    2
     4     4     5    1
     5     5     6    2
     6     6     7    1
     7     7     8    1
     8     8     9    2
     9     9    19    1
    10    19    20    1
    11    19    21    1
    12    19    22    1
    13     9    10    1
    14    10    11    2
    15     4    12    1
    16    13    12    1
    17    13    14    1
    18    14    15    1
    19    15    16    1
    20    16    23    1
    21    23    24    1
    22    24    25    1
    23    25    26    1
    24    26    32    1
    25    32    33   ar
    26    32    34   ar
    27    26    27    1
    28    27    28    1
    29    28    29    1
    30    29    30    1
    31    30    31    1
    32    16    17    1
    33    18    17    1
    34    18     2    1
    35    11     3    1
    36    18    13    1
    37    11     6    1
    38    31    26    1
@<TRIPOS>MOLECULE
*****
 34 38 0 0 0
SMALL
GASTEIGER

@<TRIPOS>ATOM
      1 C         139.6956  141.4631  165.1707 C.3     1  UNL1        0.0048
      2 C         140.7407  140.3907  165.0819 C.3     1  UNL1        0.0249
      3 C         141.5392  140.0193  166.2962 C.2     1  UNL1       -0.0078
      4 C         142.5843  138.9469  166.2074 C.2     1  UNL1        0.0546
      5 N         143.2103  138.7965  167.5622 N.2     1  UNL1       -0.2540
      6 C         142.5521  139.7758  168.4883 C.2     1  UNL1        0.0626
      7 C         142.7598  140.0771  169.9429 C.3     1  UNL1        0.0716
      8 C         141.9347  141.1341  170.6152 C.2     1  UNL1       -0.0159
      9 C         140.9019  141.8898  169.8327 C.2     1  UNL1        0.0676
     10 C         140.6942  141.5886  168.3781 C.2     1  UNL1        0.0044
     11 C         141.5193  140.5316  167.7059 C.2     1  UNL1        0.0110
     12 C         142.8309  138.2460  164.9043 C.3     1  UNL1        0.0456
     13 C         142.0324  138.6174  163.6901 C.3     1  UNL1        0.0089
     14 C         142.2789  137.9165  162.3870 C.3     1  UNL1        0.0178
     15 C         141.4804  138.2879  161.1728 C.3     1  UNL1        0.0721
     16 N         140.4354  139.3603  161.2616 N.3     1  UNL1       -0.2727
     17 C         140.1887  140.0613  162.5646 C.3     1  UNL1        0.0724
     18 C         140.9873  139.6898  163.7789 C.3     1  UNL1        0.0205
     19 C         140.0768  142.9469  170.5050 C.3     1  UNL1        0.4183
     20 F         139.2517  144.0038  171.1773 F       1  UNL1       -0.1659
     21 F         139.9660  143.6872  169.2052 F       1  UNL1       -0.1659
     22 F         140.1876  142.2065  171.8049 F       1  UNL1       -0.1659
     23 C         139.6368  139.7318  160.0473 C.3     1  UNL1        0.0721
     24 C         138.5523  140.7630  160.1495 C.3     1  UNL1        0.0177
     25 C         138.8260  142.1816  159.7464 C.3     1  UNL1        0.0068
     26 C         139.3505  143.1601  160.7550 C.3     1  UNL1        0.0369
     27 C         138.0723  142.7537  161.4266 C.3     1  UNL1        0.0373
     28 C         137.6992  143.3489  162.7519 C.3     1  UNL1        0.1425
     29 O         138.6044  144.3505  163.4057 O.3     1  UNL1       -0.3538
     30 C         139.8826  144.7569  162.7342 C.3     1  UNL1        0.1425
     31 C         140.2557  144.1617  161.4088 C.3     1  UNL1        0.0373
     32 C         140.4465  143.2266  159.7332 C.2     1  UNL1        0.0498
     33 O         140.1096  143.4038  158.2823 O.co2   1  UNL1       -0.5492
     34 O         141.8797  143.1161  160.1622 O.co2   1  UNL1       -0.5492
@<TRIPOS>UNITY_ATOM_ATTR
33 1
charge -1
@<TRIPOS>BOND
     1     2     1    1
     2     2     3    1
     3     3     4    2
     4     4     5    1
     5     5     6    2
     6     6     7    1
     7     7     8    1
     8     8     9    2
     9     9    19    1
    10    19    20    1
    11    19    21    1
    12    19    22    1
    13     9    10    1
    14    10    11    2
    15     4    12    1
    16    13    12    1
    17    13    14    1
    18    14    15    1
    19    15    16    1
    20    16    23    1
    21    23    24    1
    22    24    25    1
    23    25    26    1
    24    26    32    1
    25    32    33   ar
    26    32    34   ar
    27    26    27    1
    28    27    28    1
    29    28    29    1
    30    29    30    1
    31    30    31    1
    32    16    17    1
    33    18    17    1
    34    18     2    1
    35    11     3    1
    36    18    13    1
    37    11     6    1
    38    31    26    1
@<TRIPOS>MOLECULE
*****
 34 38 0 0 0
SMALL
GASTEIGER

@<TRIPOS>ATOM
      1 C         142.5277  140.7603  164.8689 C.3     1  UNL1        0.0048
      2 C         141.2226  140.0225  164.9194 C.3     1  UNL1        0.0249
      3 C         140.4548  139.9439  166.2055 C.2     1  UNL1       -0.0078
      4 C         139.1498  139.2061  166.2560 C.2     1  UNL1        0.0546
      5 N         138.6199  139.2969  167.6564 N.2     1  UNL1       -0.2540
      6 C         139.5974  140.0908  168.4713 C.2     1  UNL1        0.0626
      7 C         139.6014  140.5012  169.9141 C.3     1  UNL1        0.0716
      8 C         140.7395  141.3115  170.4601 C.2     1  UNL1       -0.0159
      9 C         141.8735  141.7114  169.5634 C.2     1  UNL1        0.0676
     10 C         141.8695  141.3009  168.1207 C.2     1  UNL1        0.0044
     11 C         140.7315  140.4906  167.5747 C.2     1  UNL1        0.0110
     12 C         138.6125  138.5469  165.0203 C.3     1  UNL1        0.0456
     13 C         139.3803  138.6255  163.7341 C.3     1  UNL1        0.0089
     14 C         138.8431  137.9664  162.4985 C.3     1  UNL1        0.0178
     15 C         139.6109  138.0450  161.2123 C.3     1  UNL1        0.0721
     16 N         140.9160  138.7827  161.1618 N.3     1  UNL1       -0.2727
     17 C         141.4533  139.4419  162.3975 C.3     1  UNL1        0.0724
     18 C         140.6854  139.3633  163.6837 C.3     1  UNL1        0.0205
     19 C         143.0116  142.5217  170.1096 C.3     1  UNL1        0.4183
     20 F         144.1496  143.3320  170.6557 F       1  UNL1       -0.1659
     21 F         143.6570  142.5279  168.7556 F       1  UNL1       -0.1659
     22 F         142.3662  142.5155  171.4636 F       1  UNL1       -0.1659
     23 C         141.6839  138.8614  159.8756 C.3     1  UNL1        0.0721
     24 C         142.9321  139.6895  159.7967 C.3     1  UNL1        0.0177
     25 C         142.8804  141.0701  159.2125 C.3     1  UNL1        0.0068
     26 C         144.0785  141.6303  158.5050 C.3     1  UNL1        0.0369
     27 C         143.7626  140.4727  157.6051 C.3     1  UNL1        0.0373
     28 C         144.6100  140.2097  156.3957 C.3     1  UNL1        0.1425
     29 O         145.7733  141.1046  156.0861 O.3     1  UNL1       -0.3538
     30 C         146.0893  142.2623  156.9859 C.3     1  UNL1        0.1425
     31 C         145.2419  142.5252  158.1954 C.3     1  UNL1        0.0373
     32 C         143.9784  142.5935  159.6506 C.2     1  UNL1        0.0498
     33 O         144.8474  142.4136  160.8599 O.co2   1  UNL1       -0.5492
     34 O         143.0093  143.7367  159.5868 O.co2   1  UNL1       -0.5492
@<TRIPOS>UNITY_ATOM_ATTR
33 1
charge -1
@<TRIPOS>BOND
     1     2     1    1
     2     2     3    1
     3     3     4    2
     4     4     5    1
     5     5     6    2
     6     6     7    1
     7     7     8    1
     8     8     9    2
     9     9    19    1
    10    19    20    1
    11    19    21    1
    12    19    22    1
    13     9    10    1
    14    10    11    2
    15     4    12    1
    16    13    12    1
    17    13    14    1
    18    14    15    1
    19    15    16    1
    20    16    23    1
    21    23    24    1
    22    24    25    1
    23    25    26    1
    24    26    32    1
    25    32    33   ar
    26    32    34   ar
    27    26    27    1
    28    27    28    1
    29    28    29    1
    30    29    30    1
    31    30    31    1
    32    16    17    1
    33    18    17    1
    34    18     2    1
    35    11     3    1
    36    18    13    1
    37    11     6    1
    38    31    26    1
