@<TRIPOS>MOLECULE
*****
 27 30 0 0 0
SMALL
GASTEIGER

@<TRIPOS>ATOM
      1 C         142.9586  137.9085  159.1578 C.3     1  UNL1        0.1355
      2 C         142.6541  136.7839  158.2129 C.3     1  UNL1        0.0700
      3 C         142.6894  137.3297  156.8161 C.3     1  UNL1        0.1834
      4 C         143.0156  138.7914  156.8978 C.3     1  UNL1        0.1130
      5 N         143.1820  139.1491  158.3449 N.3     1  UNL1       -0.2882
      6 H         142.5002  139.8614  158.6060 H       1  UNL1        0.1237
      7 O         144.3425  137.5538  161.3278 O.2     1  UNL1       -0.2734
      8 C         143.0276  137.8096  160.6529 C.2     1  UNL1        0.2401
      9 N         141.7816  137.9664  161.4732 N.am    1  UNL1       -0.2770
     10 C         140.5211  138.2190  160.7002 C.3     1  UNL1        0.0949
     11 C         139.1284  138.4175  161.2211 C.3     1  UNL1        0.0388
     12 C         138.6525  138.4125  162.6435 C.3     1  UNL1        0.0739
     13 N         139.4514  138.2077  163.8964 N.3     1  UNL1       -0.2725
     14 C         140.9237  137.9574  164.0363 C.3     1  UNL1        0.0938
     15 C         141.9607  137.8500  162.9578 C.3     1  UNL1        0.1107
     16 C         138.6755  138.2602  165.1790 C.3     1  UNL1        0.0576
     17 C         138.2084  139.3549  166.0921 C.3     1  UNL1        0.0160
     18 C         137.5780  138.3345  166.9929 C.3     1  UNL1        0.0028
     19 C         138.0451  137.2398  166.0799 C.3     1  UNL1        0.0160
     20 O         142.4418  136.5504  155.5586 O.3     1  UNL1       -0.4777
     21 C         142.4763  135.0510  155.5863 C.ar    1  UNL1        0.1393
     22 C         141.2407  134.2662  155.2584 C.ar    1  UNL1        0.0370
     23 C         141.2752  132.7669  155.2862 C.ar    1  UNL1        0.0040
     24 C         142.5452  132.0523  155.6417 C.ar    1  UNL1        0.0116
     25 C         143.7807  132.8371  155.9695 C.ar    1  UNL1        0.0607
     26 CL        145.0508  132.1226  156.3251 Cl      1  UNL1       -0.0821
     27 C         143.7462  134.3365  155.9418 C.ar    1  UNL1        0.0483
@<TRIPOS>BOND
     1     7     8    2
     2     8     1    1
     3     1     2    1
     4     2     3    1
     5     3    20    1
     6    20    21    1
     7    21    22   ar
     8    22    23   ar
     9    23    24   ar
    10    24    25   ar
    11    25    26    1
    12    25    27   ar
    13     3     4    1
    14     4     5    1
    15     8     9   am
    16     9    10    1
    17    10    11    1
    18    11    12    1
    19    12    13    1
    20    13    16    1
    21    16    17    1
    22    17    18    1
    23    18    19    1
    24    13    14    1
    25    14    15    1
    26     5     1    1
    27    15     9    1
    28    27    21   ar
    29    19    16    1
    30     5     6    1
@<TRIPOS>MOLECULE
*****
 27 30 0 0 0
SMALL
GASTEIGER

@<TRIPOS>ATOM
      1 C         140.8554  138.5679  157.9173 C.3     1  UNL1        0.1355
      2 C         140.9518  137.3573  157.0368 C.3     1  UNL1        0.0700
      3 C         142.2926  137.3786  156.3646 C.3     1  UNL1        0.1834
      4 C         143.0248  138.6024  156.8296 C.3     1  UNL1        0.1130
      5 N         142.1366  139.3373  157.7892 N.3     1  UNL1       -0.2882
      6 H         141.9439  140.2740  157.4344 H       1  UNL1        0.1237
      7 O         138.4634  139.5541  158.1526 O.2     1  UNL1       -0.2734
      8 C         139.6836  138.9431  158.7752 C.2     1  UNL1        0.2401
      9 N         139.7319  138.7071  160.2557 N.am    1  UNL1       -0.2770
     10 C         140.9973  138.0917  160.7757 C.3     1  UNL1        0.0949
     11 C         141.3517  137.7350  162.1889 C.3     1  UNL1        0.0388
     12 C         140.5285  137.9055  163.4311 C.3     1  UNL1        0.0739
     13 N         139.1474  138.4749  163.5670 N.3     1  UNL1       -0.2725
     14 C         138.2485  139.0144  162.4942 C.3     1  UNL1        0.0938
     15 C         138.5087  139.1177  161.0205 C.3     1  UNL1        0.1107
     16 C         138.5918  138.5094  164.9598 C.3     1  UNL1        0.0576
     17 C         138.1711  139.5934  165.9075 C.3     1  UNL1        0.0160
     18 C         137.8060  138.5582  166.9297 C.3     1  UNL1        0.0028
     19 C         138.2266  137.4741  165.9821 C.3     1  UNL1        0.0160
     20 O         142.8102  136.3558  155.3971 O.3     1  UNL1       -0.4777
     21 C         142.8053  134.9024  155.7683 C.ar    1  UNL1        0.1393
     22 C         141.7373  133.9953  155.2330 C.ar    1  UNL1        0.0370
     23 C         141.7324  132.5420  155.6040 C.ar    1  UNL1        0.0040
     24 C         142.7954  131.9957  156.5104 C.ar    1  UNL1        0.0116
     25 C         143.8634  132.9028  157.0457 C.ar    1  UNL1        0.0607
     26 CL        144.9265  132.3566  157.9521 Cl      1  UNL1       -0.0821
     27 C         143.8683  134.3562  156.6746 C.ar    1  UNL1        0.0483
@<TRIPOS>BOND
     1     7     8    2
     2     8     1    1
     3     1     2    1
     4     2     3    1
     5     3    20    1
     6    20    21    1
     7    21    22   ar
     8    22    23   ar
     9    23    24   ar
    10    24    25   ar
    11    25    26    1
    12    25    27   ar
    13     3     4    1
    14     4     5    1
    15     8     9   am
    16     9    10    1
    17    10    11    1
    18    11    12    1
    19    12    13    1
    20    13    16    1
    21    16    17    1
    22    17    18    1
    23    18    19    1
    24    13    14    1
    25    14    15    1
    26     5     1    1
    27    15     9    1
    28    27    21   ar
    29    19    16    1
    30     5     6    1
@<TRIPOS>MOLECULE
*****
 27 30 0 0 0
SMALL
GASTEIGER

@<TRIPOS>ATOM
      1 C         138.6801  140.0965  165.2441 C.3     1  UNL1        0.1355
      2 C         139.5800  140.4281  166.3975 C.3     1  UNL1        0.0700
      3 C         139.1079  139.6526  167.5916 C.3     1  UNL1        0.1834
      4 C         137.9163  138.8417  167.1761 C.3     1  UNL1        0.1130
      5 N         137.6520  139.1161  165.7253 N.3     1  UNL1       -0.2882
      6 H         136.7181  139.5104  165.6121 H       1  UNL1        0.1237
      7 O         138.0359  141.8899  163.4781 O.2     1  UNL1       -0.2734
      8 C         138.7894  140.6484  163.8536 C.2     1  UNL1        0.2401
      9 N         139.6521  139.9589  162.8386 N.am    1  UNL1       -0.2770
     10 C         140.3615  138.7268  163.3169 C.3     1  UNL1        0.0949
     11 C         141.2854  137.8241  162.5541 C.3     1  UNL1        0.0388
     12 C         141.7280  137.9306  161.1250 C.3     1  UNL1        0.0739
     13 N         141.3561  138.9660  160.1054 N.3     1  UNL1       -0.2725
     14 C         140.4497  140.1507  160.2632 C.3     1  UNL1        0.0938
     15 C         139.6914  140.5926  161.4797 C.3     1  UNL1        0.1107
     16 C         141.9720  138.7940  158.7486 C.3     1  UNL1        0.0576
     17 C         143.1833  139.3447  158.0559 C.3     1  UNL1        0.0160
     18 C         142.8431  138.5507  156.8296 C.3     1  UNL1        0.0028
     19 C         141.6318  138.0000  157.5221 C.3     1  UNL1        0.0160
     20 O         139.7199  139.6827  168.9607 O.3     1  UNL1       -0.4777
     21 C         140.6387  140.8037  169.3470 C.ar    1  UNL1        0.1393
     22 C         142.1097  140.5503  169.4957 C.ar    1  UNL1        0.0370
     23 C         143.0285  141.6712  169.8820 C.ar    1  UNL1        0.0040
     24 C         142.4764  143.0455  170.1196 C.ar    1  UNL1        0.0116
     25 C         141.0055  143.2989  169.9709 C.ar    1  UNL1        0.0607
     26 CL        140.4533  144.6732  170.2085 Cl      1  UNL1       -0.0821
     27 C         140.0867  142.1779  169.5846 C.ar    1  UNL1        0.0483
@<TRIPOS>BOND
     1     7     8    2
     2     8     1    1
     3     1     2    1
     4     2     3    1
     5     3    20    1
     6    20    21    1
     7    21    22   ar
     8    22    23   ar
     9    23    24   ar
    10    24    25   ar
    11    25    26    1
    12    25    27   ar
    13     3     4    1
    14     4     5    1
    15     8     9   am
    16     9    10    1
    17    10    11    1
    18    11    12    1
    19    12    13    1
    20    13    16    1
    21    16    17    1
    22    17    18    1
    23    18    19    1
    24    13    14    1
    25    14    15    1
    26     5     1    1
    27    15     9    1
    28    27    21   ar
    29    19    16    1
    30     5     6    1
@<TRIPOS>MOLECULE
*****
 27 30 0 0 0
SMALL
GASTEIGER

@<TRIPOS>ATOM
      1 C         141.6991  144.8148  162.4038 C.3     1  UNL1        0.1355
      2 C         141.3290  144.2121  161.0809 C.3     1  UNL1        0.0700
      3 C         140.2301  145.0413  160.4851 C.3     1  UNL1        0.1834
      4 C         139.9211  146.1562  161.4397 C.3     1  UNL1        0.1130
      5 N         140.8290  146.0162  162.6254 N.3     1  UNL1       -0.2882
      6 H         140.2750  145.8909  163.4726 H       1  UNL1        0.1237
      7 O         144.2033  144.5571  163.0461 O.2     1  UNL1       -0.2734
      8 C         142.7542  144.3053  163.3403 C.2     1  UNL1        0.2401
      9 N         142.3601  143.5439  164.5712 N.am    1  UNL1       -0.2770
     10 C         140.8865  143.3475  164.7710 C.3     1  UNL1        0.0949
     11 C         140.1805  142.6383  165.8885 C.3     1  UNL1        0.0388
     12 C         140.7738  141.9503  167.0820 C.3     1  UNL1        0.0739
     13 N         142.2196  141.8015  167.4530 N.3     1  UNL1       -0.2725
     14 C         143.4292  142.3041  166.7219 C.3     1  UNL1        0.0938
     15 C         143.4916  143.0795  165.4394 C.3     1  UNL1        0.1107
     16 C         142.4918  141.0510  168.7228 C.3     1  UNL1        0.0576
     17 C         142.4374  139.6099  169.1357 C.3     1  UNL1        0.0160
     18 C         142.8768  139.9895  170.5187 C.3     1  UNL1        0.0028
     19 C         142.9313  141.4306  170.1059 C.3     1  UNL1        0.0160
     20 O         139.5581  144.7980  159.1662 O.3     1  UNL1       -0.4777
     21 C         140.3129  145.0162  157.8884 C.ar    1  UNL1        0.1393
     22 C         141.4412  144.0997  157.5180 C.ar    1  UNL1        0.0370
     23 C         142.1959  144.3178  156.2403 C.ar    1  UNL1        0.0040
     24 C         141.8225  145.4524  155.3329 C.ar    1  UNL1        0.0116
     25 C         140.6943  146.3688  155.7033 C.ar    1  UNL1        0.0607
     26 CL        140.3208  147.5034  154.7960 Cl      1  UNL1       -0.0821
     27 C         139.9395  146.1507  156.9811 C.ar    1  UNL1        0.0483
@<TRIPOS>BOND
     1     7     8    2
     2     8     1    1
     3     1     2    1
     4     2     3    1
     5     3    20    1
     6    20    21    1
     7    21    22   ar
     8    22    23   ar
     9    23    24   ar
    10    24    25   ar
    11    25    26    1
    12    25    27   ar
    13     3     4    1
    14     4     5    1
    15     8     9   am
    16     9    10    1
    17    10    11    1
    18    11    12    1
    19    12    13    1
    20    13    16    1
    21    16    17    1
    22    17    18    1
    23    18    19    1
    24    13    14    1
    25    14    15    1
    26     5     1    1
    27    15     9    1
    28    27    21   ar
    29    19    16    1
    30     5     6    1
@<TRIPOS>MOLECULE
*****
 27 30 0 0 0
SMALL
GASTEIGER

@<TRIPOS>ATOM
      1 C         138.3637  140.1181  161.8009 C.3     1  UNL1        0.1355
      2 C         138.2940  139.2123  162.9945 C.3     1  UNL1        0.0700
      3 C         138.2431  140.0695  164.2245 C.3     1  UNL1        0.1834
      4 C         138.2813  141.5049  163.7910 C.3     1  UNL1        0.1130
      5 N         138.3558  141.5349  162.2932 N.3     1  UNL1       -0.2882
      6 H         139.2098  142.0085  161.9986 H       1  UNL1        0.1237
      7 O         137.2456  139.8819  159.4677 O.2     1  UNL1       -0.2734
      8 C         138.4296  139.6833  160.3669 C.2     1  UNL1        0.2401
      9 N         139.6797  139.0498  159.8319 N.am    1  UNL1       -0.2770
     10 C         140.8036  138.8978  160.8136 C.3     1  UNL1        0.0949
     11 C         142.1661  138.3106  160.5919 C.3     1  UNL1        0.0388
     12 C         142.7408  137.7303  159.3339 C.3     1  UNL1        0.0739
     13 N         142.0954  137.5939  157.9867 N.3     1  UNL1       -0.2725
     14 C         140.7156  138.0041  157.5650 C.3     1  UNL1        0.0938
     15 C         139.6405  138.6521  158.3863 C.3     1  UNL1        0.1107
     16 C         142.9415  136.9640  156.9204 C.3     1  UNL1        0.0576
     17 C         143.7092  137.4734  155.7366 C.3     1  UNL1        0.0160
     18 C         144.1382  136.0731  155.4122 C.3     1  UNL1        0.0028
     19 C         143.3706  135.5637  156.5959 C.3     1  UNL1        0.0160
     20 O         138.1673  139.5774  165.6395 O.3     1  UNL1       -0.4777
     21 C         139.3742  139.6564  166.5267 C.ar    1  UNL1        0.1393
     22 C         140.7469  139.5077  165.9405 C.ar    1  UNL1        0.0370
     23 C         141.9538  139.5867  166.8276 C.ar    1  UNL1        0.0040
     24 C         141.7881  139.8143  168.3010 C.ar    1  UNL1        0.0116
     25 C         140.4154  139.9630  168.8871 C.ar    1  UNL1        0.0607
     26 CL        140.2496  140.1907  170.3605 Cl      1  UNL1       -0.0821
     27 C         139.2085  139.8841  167.9999 C.ar    1  UNL1        0.0483
@<TRIPOS>BOND
     1     7     8    2
     2     8     1    1
     3     1     2    1
     4     2     3    1
     5     3    20    1
     6    20    21    1
     7    21    22   ar
     8    22    23   ar
     9    23    24   ar
    10    24    25   ar
    11    25    26    1
    12    25    27   ar
    13     3     4    1
    14     4     5    1
    15     8     9   am
    16     9    10    1
    17    10    11    1
    18    11    12    1
    19    12    13    1
    20    13    16    1
    21    16    17    1
    22    17    18    1
    23    18    19    1
    24    13    14    1
    25    14    15    1
    26     5     1    1
    27    15     9    1
    28    27    21   ar
    29    19    16    1
    30     5     6    1
@<TRIPOS>MOLECULE
*****
 27 30 0 0 0
SMALL
GASTEIGER

@<TRIPOS>ATOM
      1 C         140.7381  138.1575  162.2023 C.3     1  UNL1        0.1355
      2 C         140.4661  138.8220  160.8853 C.3     1  UNL1        0.0700
      3 C         141.5657  138.4419  159.9385 C.3     1  UNL1        0.1834
      4 C         142.5172  137.5425  160.6704 C.3     1  UNL1        0.1130
      5 N         142.0058  137.3668  162.0694 N.3     1  UNL1       -0.2882
      6 H         142.6980  137.7079  162.7364 H       1  UNL1        0.1237
      7 O         138.6847  137.3882  163.5957 O.2     1  UNL1       -0.2734
      8 C         139.8912  138.2650  163.4356 C.2     1  UNL1        0.2401
      9 N         140.2506  139.2493  164.5089 N.am    1  UNL1       -0.2770
     10 C         141.4748  140.0766  164.2497 C.3     1  UNL1        0.0949
     11 C         142.0891  141.1352  165.1171 C.3     1  UNL1        0.0388
     12 C         141.6310  141.6277  166.4577 C.3     1  UNL1        0.0739
     13 N         140.4454  141.1836  167.2622 N.3     1  UNL1       -0.2725
     14 C         139.4252  140.1371  166.9247 C.3     1  UNL1        0.0938
     15 C         139.3385  139.2763  165.6993 C.3     1  UNL1        0.1107
     16 C         140.2549  141.8777  168.5782 C.3     1  UNL1        0.0576
     17 C         140.4046  143.2888  169.0646 C.3     1  UNL1        0.0160
     18 C         139.9855  142.8594  170.4393 C.3     1  UNL1        0.0028
     19 C         139.8358  141.4484  169.9530 C.3     1  UNL1        0.0160
     20 O         141.6915  138.8836  158.5105 O.3     1  UNL1       -0.4777
     21 C         141.5719  137.8804  157.4018 C.ar    1  UNL1        0.1393
     22 C         140.2525  137.6701  156.7198 C.ar    1  UNL1        0.0370
     23 C         140.1328  136.6669  155.6112 C.ar    1  UNL1        0.0040
     24 C         141.3324  135.8740  155.1844 C.ar    1  UNL1        0.0116
     25 C         142.6518  136.0843  155.8663 C.ar    1  UNL1        0.0607
     26 CL        143.8515  135.2914  155.4396 Cl      1  UNL1       -0.0821
     27 C         142.7715  137.0875  156.9750 C.ar    1  UNL1        0.0483
@<TRIPOS>BOND
     1     7     8    2
     2     8     1    1
     3     1     2    1
     4     2     3    1
     5     3    20    1
     6    20    21    1
     7    21    22   ar
     8    22    23   ar
     9    23    24   ar
    10    24    25   ar
    11    25    26    1
    12    25    27   ar
    13     3     4    1
    14     4     5    1
    15     8     9   am
    16     9    10    1
    17    10    11    1
    18    11    12    1
    19    12    13    1
    20    13    16    1
    21    16    17    1
    22    17    18    1
    23    18    19    1
    24    13    14    1
    25    14    15    1
    26     5     1    1
    27    15     9    1
    28    27    21   ar
    29    19    16    1
    30     5     6    1
@<TRIPOS>MOLECULE
*****
 27 30 0 0 0
SMALL
GASTEIGER

@<TRIPOS>ATOM
      1 C         138.8909  140.4331  164.1252 C.3     1  UNL1        0.1355
      2 C         138.9990  140.8805  165.5529 C.3     1  UNL1        0.0700
      3 C         139.4905  139.7200  166.3664 C.3     1  UNL1        0.1834
      4 C         139.6862  138.5554  165.4415 C.3     1  UNL1        0.1130
      5 N         139.3156  138.9961  164.0565 N.3     1  UNL1       -0.2882
      6 H         138.5473  138.4245  163.7053 H       1  UNL1        0.1237
      7 O         136.9729  141.4802  162.7200 O.2     1  UNL1       -0.2734
      8 C         138.4377  141.2748  162.9694 C.2     1  UNL1        0.2401
      9 N         139.4492  141.9113  162.0630 N.am    1  UNL1       -0.2770
     10 C         140.8859  141.6427  162.4007 C.3     1  UNL1        0.0949
     11 C         142.1185  142.1287  161.6975 C.3     1  UNL1        0.0388
     12 C         142.2190  143.0032  160.4830 C.3     1  UNL1        0.0739
     13 N         141.1116  143.6078  159.6717 N.3     1  UNL1       -0.2725
     14 C         139.6303  143.4872  159.8745 C.3     1  UNL1        0.0938
     15 C         138.8905  142.7321  160.9388 C.3     1  UNL1        0.1107
     16 C         141.5426  144.4435  158.5030 C.3     1  UNL1        0.0576
     17 C         142.4678  144.2431  157.3394 C.3     1  UNL1        0.0160
     18 C         142.1521  145.6254  156.8502 C.3     1  UNL1        0.0028
     19 C         141.2269  145.8259  158.0137 C.3     1  UNL1        0.0160
     20 O         139.7421  139.7235  167.8452 O.3     1  UNL1       -0.4777
     21 C         140.6668  140.7403  168.4462 C.ar    1  UNL1        0.1393
     22 C         142.1355  140.4521  168.5458 C.ar    1  UNL1        0.0370
     23 C         143.0602  141.4687  169.1468 C.ar    1  UNL1        0.0040
     24 C         142.5163  142.7736  169.6481 C.ar    1  UNL1        0.0116
     25 C         141.0476  143.0618  169.5485 C.ar    1  UNL1        0.0607
     26 CL        140.5037  144.3667  170.0498 Cl      1  UNL1       -0.0821
     27 C         140.1229  142.0451  168.9475 C.ar    1  UNL1        0.0483
@<TRIPOS>BOND
     1     7     8    2
     2     8     1    1
     3     1     2    1
     4     2     3    1
     5     3    20    1
     6    20    21    1
     7    21    22   ar
     8    22    23   ar
     9    23    24   ar
    10    24    25   ar
    11    25    26    1
    12    25    27   ar
    13     3     4    1
    14     4     5    1
    15     8     9   am
    16     9    10    1
    17    10    11    1
    18    11    12    1
    19    12    13    1
    20    13    16    1
    21    16    17    1
    22    17    18    1
    23    18    19    1
    24    13    14    1
    25    14    15    1
    26     5     1    1
    27    15     9    1
    28    27    21   ar
    29    19    16    1
    30     5     6    1
@<TRIPOS>MOLECULE
*****
 27 30 0 0 0
SMALL
GASTEIGER

@<TRIPOS>ATOM
      1 C         138.4057  141.2238  160.1398 C.3     1  UNL1        0.1355
      2 C         137.7949  140.8610  161.4610 C.3     1  UNL1        0.0700
      3 C         137.9805  142.0224  162.3920 C.3     1  UNL1        0.1834
      4 C         138.7060  143.1029  161.6462 C.3     1  UNL1        0.1130
      5 N         138.9687  142.6093  160.2544 N.3     1  UNL1       -0.2882
      6 H         139.9731  142.5905  160.0776 H       1  UNL1        0.1237
      7 O         137.2863  140.3414  157.9677 O.2     1  UNL1       -0.2734
      8 C         138.4462  140.3537  158.9187 C.2     1  UNL1        0.2401
      9 N         139.6467  139.4959  158.6484 N.am    1  UNL1       -0.2770
     10 C         140.7498  139.5828  159.6612 C.3     1  UNL1        0.0949
     11 C         142.0641  138.8598  159.6768 C.3     1  UNL1        0.0388
     12 C         142.5997  137.8716  158.6836 C.3     1  UNL1        0.0739
     13 N         141.9534  137.3621  157.4295 N.3     1  UNL1       -0.2725
     14 C         140.6119  137.7151  156.8588 C.3     1  UNL1        0.0938
     15 C         139.5853  138.6648  157.4014 C.3     1  UNL1        0.1107
     16 C         142.7546  136.3683  156.6420 C.3     1  UNL1        0.0576
     17 C         143.9453  136.4475  155.7331 C.3     1  UNL1        0.0160
     18 C         143.8878  134.9627  155.5281 C.3     1  UNL1        0.0028
     19 C         142.6971  134.8834  156.4370 C.3     1  UNL1        0.0160
     20 O         137.5213  142.0911  163.8183 O.3     1  UNL1       -0.4777
     21 C         138.3409  141.4550  164.9017 C.ar    1  UNL1        0.1393
     22 C         138.1193  140.0161  165.2630 C.ar    1  UNL1        0.0370
     23 C         138.9389  139.3800  166.3462 C.ar    1  UNL1        0.0040
     24 C         139.9802  140.1827  167.0682 C.ar    1  UNL1        0.0116
     25 C         140.2018  141.6216  166.7069 C.ar    1  UNL1        0.0607
     26 CL        141.2432  142.4244  167.4289 Cl      1  UNL1       -0.0821
     27 C         139.3822  142.2577  165.6236 C.ar    1  UNL1        0.0483
@<TRIPOS>BOND
     1     7     8    2
     2     8     1    1
     3     1     2    1
     4     2     3    1
     5     3    20    1
     6    20    21    1
     7    21    22   ar
     8    22    23   ar
     9    23    24   ar
    10    24    25   ar
    11    25    26    1
    12    25    27   ar
    13     3     4    1
    14     4     5    1
    15     8     9   am
    16     9    10    1
    17    10    11    1
    18    11    12    1
    19    12    13    1
    20    13    16    1
    21    16    17    1
    22    17    18    1
    23    18    19    1
    24    13    14    1
    25    14    15    1
    26     5     1    1
    27    15     9    1
    28    27    21   ar
    29    19    16    1
    30     5     6    1
@<TRIPOS>MOLECULE
*****
 27 30 0 0 0
SMALL
GASTEIGER

@<TRIPOS>ATOM
      1 C         140.0307  144.3729  161.8389 C.3     1  UNL1        0.1355
      2 C         139.8268  143.4684  160.6597 C.3     1  UNL1        0.0700
      3 C         140.3992  144.1470  159.4506 C.3     1  UNL1        0.1834
      4 C         140.9569  145.4708  159.8825 C.3     1  UNL1        0.1130
      5 N         140.7291  145.6103  161.3585 N.3     1  UNL1       -0.2882
      6 H         140.1493  146.4289  161.5434 H       1  UNL1        0.1237
      7 O         138.2063  144.3854  163.6885 O.2     1  UNL1       -0.2734
      8 C         139.6100  144.0895  163.2505 C.2     1  UNL1        0.2401
      9 N         140.5931  143.5102  164.2241 N.am    1  UNL1       -0.2770
     10 C         141.9687  143.2523  163.6843 C.3     1  UNL1        0.0949
     11 C         143.1616  142.6859  164.3959 C.3     1  UNL1        0.0388
     12 C         143.2734  142.2375  165.8229 C.3     1  UNL1        0.0739
     13 N         142.2201  142.2447  166.8908 N.3     1  UNL1       -0.2725
     14 C         140.7947  142.7021  166.7955 C.3     1  UNL1        0.0938
     15 C         140.0707  143.2653  165.6086 C.3     1  UNL1        0.1107
     16 C         142.6488  141.7259  168.2313 C.3     1  UNL1        0.0576
     17 C         142.4856  140.4299  168.9688 C.3     1  UNL1        0.0160
     18 C         143.2551  140.9921  170.1272 C.3     1  UNL1        0.0028
     19 C         143.4184  142.2881  169.3898 C.3     1  UNL1        0.0160
     20 O         140.4118  143.5981  158.0546 O.3     1  UNL1       -0.4777
     21 C         139.4849  144.1618  157.0187 C.ar    1  UNL1        0.1393
     22 C         138.3445  143.3349  156.5031 C.ar    1  UNL1        0.0370
     23 C         137.4177  143.8986  155.4672 C.ar    1  UNL1        0.0040
     24 C         137.6312  145.2891  154.9469 C.ar    1  UNL1        0.0116
     25 C         138.7715  146.1160  155.4624 C.ar    1  UNL1        0.0607
     26 CL        138.9851  147.5066  154.9421 Cl      1  UNL1       -0.0821
     27 C         139.6984  145.5523  156.4984 C.ar    1  UNL1        0.0483
@<TRIPOS>BOND
     1     7     8    2
     2     8     1    1
     3     1     2    1
     4     2     3    1
     5     3    20    1
     6    20    21    1
     7    21    22   ar
     8    22    23   ar
     9    23    24   ar
    10    24    25   ar
    11    25    26    1
    12    25    27   ar
    13     3     4    1
    14     4     5    1
    15     8     9   am
    16     9    10    1
    17    10    11    1
    18    11    12    1
    19    12    13    1
    20    13    16    1
    21    16    17    1
    22    17    18    1
    23    18    19    1
    24    13    14    1
    25    14    15    1
    26     5     1    1
    27    15     9    1
    28    27    21   ar
    29    19    16    1
    30     5     6    1
