@<TRIPOS>MOLECULE
*****
 32 35 0 0 0
SMALL
GASTEIGER

@<TRIPOS>ATOM
      1 C         140.6529  138.6850  162.4811 C.ar    1  UNL1        0.3283
      2 N         140.4759  140.1730  162.5490 N.ar    1  UNL1       -0.1741
      3 C         140.5296  140.9927  161.2940 C.ar    1  UNL1        0.1773
      4 N         140.7603  140.3245  159.9710 N.ar    1  UNL1       -0.1937
      5 C         140.9373  138.8366  159.9030 C.ar    1  UNL1        0.2255
      6 N         140.8836  138.0168  161.1581 N.ar    1  UNL1       -0.1607
      7 C         140.3526  142.4808  161.3619 C.ar    1  UNL1        0.0871
      8 C         139.5119  143.3117  160.4384 C.ar    1  UNL1        0.1104
      9 N         139.6250  144.7435  160.8710 N.ar    1  UNL1       -0.2228
     10 C         140.5355  144.7975  162.0619 C.ar    1  UNL1        0.1568
     11 N         140.9275  146.0330  162.8167 N.pl3   1  UNL1       -0.3375
     12 S         140.9852  143.3989  162.3652 S.2     1  UNL1       -0.0488
     13 H         140.5784  146.9108  162.5396 H       1  UNL1        0.1442
     14 H         141.5340  145.9661  163.5894 H       1  UNL1        0.1442
     15 N         141.1680  138.1684  158.5800 N.pl3   1  UNL1       -0.2729
     16 C         140.0234  137.9672  157.6317 C.3     1  UNL1        0.1257
     17 C         140.2541  137.2990  156.3087 C.3     1  UNL1        0.1637
     18 O         141.6293  136.8320  155.9341 O.3     1  UNL1       -0.3501
     19 C         142.7740  137.0331  156.8824 C.3     1  UNL1        0.1637
     20 C         142.5433  137.7013  158.2054 C.3     1  UNL1        0.1257
     21 O         140.5992  137.8653  163.7361 O.3     1  UNL1       -0.4222
     22 C         140.1359  139.8901  167.7280 C.ar    1  UNL1        0.0538
     23 C         141.5050  139.6361  167.1703 C.ar    1  UNL1        0.0076
     24 C         141.6594  138.9611  165.8396 C.ar    1  UNL1        0.0378
     25 C         140.4448  138.5402  165.0667 C.ar    1  UNL1        0.1487
     26 C         139.0757  138.7943  165.6244 C.ar    1  UNL1        0.0378
     27 C         138.9213  139.4692  166.9551 C.ar    1  UNL1        0.0076
     28 C         139.9854  142.7276  170.4986 C.3     1  UNL1        0.1152
     29 N         140.1399  142.0526  169.1679 N.am    1  UNL1       -0.2726
     30 C         140.4527  142.8653  167.9465 C.3     1  UNL1        0.1152
     31 C         139.9815  140.5651  169.0586 C.2     1  UNL1        0.2491
     32 O         139.6686  139.7524  170.2800 O.2     1  UNL1       -0.2699
@<TRIPOS>BOND
     1    28    29    1
     2    29    30    1
     3    29    31   am
     4    31    32    2
     5    31    22    1
     6    22    23   ar
     7    23    24   ar
     8    24    25   ar
     9    25    21    1
    10    21     1    1
    11     1     2   ar
    12     2     3   ar
    13     3     7    1
    14     7     8   ar
    15     8     9   ar
    16     9    10   ar
    17    10    11    1
    18    10    12   ar
    19     3     4   ar
    20     4     5   ar
    21     5    15    1
    22    15    16    1
    23    16    17    1
    24    17    18    1
    25    18    19    1
    26    19    20    1
    27     5     6   ar
    28    25    26   ar
    29    26    27   ar
    30    27    22   ar
    31     6     1   ar
    32    12     7   ar
    33    20    15    1
    34    11    13    1
    35    11    14    1
@<TRIPOS>MOLECULE
*****
 32 35 0 0 0
SMALL
GASTEIGER

@<TRIPOS>ATOM
      1 C         143.3506  140.8519  163.9355 C.ar    1  UNL1        0.3283
      2 N         143.4010  140.6724  165.4239 N.ar    1  UNL1       -0.1741
      3 C         142.4315  141.4074  166.3012 C.ar    1  UNL1        0.1773
      4 N         141.4115  142.3218  165.6903 N.ar    1  UNL1       -0.1937
      5 C         141.3610  142.5013  164.2020 C.ar    1  UNL1        0.2255
      6 N         142.3305  141.7664  163.3245 N.ar    1  UNL1       -0.1607
      7 C         142.4820  141.2279  167.7897 C.ar    1  UNL1        0.0871
      8 C         142.6545  139.9266  168.5155 C.ar    1  UNL1        0.1104
      9 N         142.6480  140.2126  169.9879 N.ar    1  UNL1       -0.2228
     10 C         142.4714  141.6908  170.1722 C.ar    1  UNL1        0.1568
     11 N         142.4085  142.4145  171.4845 N.pl3   1  UNL1       -0.3375
     12 S         142.3689  142.3183  168.8135 S.2     1  UNL1       -0.0488
     13 H         142.4859  141.9123  172.3278 H       1  UNL1        0.1442
     14 H         142.2898  143.3916  171.5027 H       1  UNL1        0.1442
     15 N         140.3410  143.4158  163.5910 N.pl3   1  UNL1       -0.2729
     16 C         140.7818  144.6478  162.8577 C.3     1  UNL1        0.1257
     17 C         139.7617  145.5623  162.2467 C.3     1  UNL1        0.1637
     18 O         138.3009  145.2448  162.3691 O.3     1  UNL1       -0.3501
     19 C         137.8600  144.0127  163.1024 C.3     1  UNL1        0.1637
     20 C         138.8800  143.0982  163.7134 C.3     1  UNL1        0.1257
     21 O         144.3201  140.1169  163.0581 O.3     1  UNL1       -0.4222
     22 C         142.9336  138.3521  159.1577 C.ar    1  UNL1        0.0538
     23 C         143.3832  139.7820  159.2162 C.ar    1  UNL1        0.0076
     24 C         143.8453  140.3702  160.5164 C.ar    1  UNL1        0.0378
     25 C         143.8579  139.5287  161.7579 C.ar    1  UNL1        0.1487
     26 C         143.4084  138.0988  161.6994 C.ar    1  UNL1        0.0378
     27 C         142.9462  137.5106  160.3992 C.ar    1  UNL1        0.0076
     28 C         140.5569  137.2249  156.1860 C.3     1  UNL1        0.1152
     29 N         141.0190  137.8132  157.4862 N.am    1  UNL1       -0.2726
     30 C         140.0286  138.4508  158.4150 C.3     1  UNL1        0.1152
     31 C         142.4715  137.7639  157.8575 C.2     1  UNL1        0.2491
     32 O         143.4618  137.1263  156.9287 O.2     1  UNL1       -0.2699
@<TRIPOS>BOND
     1    28    29    1
     2    29    30    1
     3    29    31   am
     4    31    32    2
     5    31    22    1
     6    22    23   ar
     7    23    24   ar
     8    24    25   ar
     9    25    21    1
    10    21     1    1
    11     1     2   ar
    12     2     3   ar
    13     3     7    1
    14     7     8   ar
    15     8     9   ar
    16     9    10   ar
    17    10    11    1
    18    10    12   ar
    19     3     4   ar
    20     4     5   ar
    21     5    15    1
    22    15    16    1
    23    16    17    1
    24    17    18    1
    25    18    19    1
    26    19    20    1
    27     5     6   ar
    28    25    26   ar
    29    26    27   ar
    30    27    22   ar
    31     6     1   ar
    32    12     7   ar
    33    20    15    1
    34    11    13    1
    35    11    14    1
@<TRIPOS>MOLECULE
*****
 32 35 0 0 0
SMALL
GASTEIGER

@<TRIPOS>ATOM
      1 C         143.3431  139.9630  159.8103 C.ar    1  UNL1        0.3283
      2 N         142.4637  141.1010  160.2368 N.ar    1  UNL1       -0.1741
      3 C         142.5059  142.4017  159.4911 C.ar    1  UNL1        0.1773
      4 N         143.4276  142.5647  158.3189 N.ar    1  UNL1       -0.1937
      5 C         144.3070  141.4269  157.8924 C.ar    1  UNL1        0.2255
      6 N         144.2648  140.1260  158.6381 N.ar    1  UNL1       -0.1607
      7 C         141.6265  143.5397  159.9175 C.ar    1  UNL1        0.0871
      8 C         140.5210  144.1507  159.1086 C.ar    1  UNL1        0.1104
      9 N         139.9095  145.2550  159.9189 N.ar    1  UNL1       -0.2228
     10 C         140.6371  145.3264  161.2288 C.ar    1  UNL1        0.1568
     11 N         140.3533  146.2890  162.3436 N.pl3   1  UNL1       -0.3375
     12 S         141.6983  144.2662  161.2279 S.2     1  UNL1       -0.0488
     13 H         139.6318  146.9522  162.2497 H       1  UNL1        0.1442
     14 H         140.8886  146.2575  163.1693 H       1  UNL1        0.1442
     15 N         145.2287  141.5898  156.7203 N.pl3   1  UNL1       -0.2729
     16 C         144.8191  141.0854  155.3683 C.3     1  UNL1        0.1257
     17 C         145.7408  141.2484  154.1962 C.3     1  UNL1        0.1637
     18 O         147.0720  141.9157  154.3759 O.3     1  UNL1       -0.3501
     19 C         147.4817  142.4202  155.7279 C.3     1  UNL1        0.1637
     20 C         146.5600  142.2572  156.9001 C.3     1  UNL1        0.1257
     21 O         143.3008  138.6622  160.5560 O.3     1  UNL1       -0.4222
     22 C         143.3122  138.6469  165.0559 C.ar    1  UNL1        0.0538
     23 C         144.4032  139.3516  164.3056 C.ar    1  UNL1        0.0076
     24 C         144.3994  139.3567  162.8056 C.ar    1  UNL1        0.0378
     25 C         143.3046  138.6571  162.0560 C.ar    1  UNL1        0.1487
     26 C         142.2137  137.9524  162.8063 C.ar    1  UNL1        0.0378
     27 C         142.2175  137.9473  164.3063 C.ar    1  UNL1        0.0076
     28 C         142.5205  139.6566  168.8114 C.3     1  UNL1        0.1152
     29 N         142.5167  139.6617  167.3114 N.am    1  UNL1       -0.2726
     30 C         141.7135  140.6868  166.5669 C.3     1  UNL1        0.1152
     31 C         143.3160  138.6418  166.5559 C.2     1  UNL1        0.2491
     32 O         144.1191  137.6168  167.3004 O.2     1  UNL1       -0.2699
@<TRIPOS>BOND
     1    28    29    1
     2    29    30    1
     3    29    31   am
     4    31    32    2
     5    31    22    1
     6    22    23   ar
     7    23    24   ar
     8    24    25   ar
     9    25    21    1
    10    21     1    1
    11     1     2   ar
    12     2     3   ar
    13     3     7    1
    14     7     8   ar
    15     8     9   ar
    16     9    10   ar
    17    10    11    1
    18    10    12   ar
    19     3     4   ar
    20     4     5   ar
    21     5    15    1
    22    15    16    1
    23    16    17    1
    24    17    18    1
    25    18    19    1
    26    19    20    1
    27     5     6   ar
    28    25    26   ar
    29    26    27   ar
    30    27    22   ar
    31     6     1   ar
    32    12     7   ar
    33    20    15    1
    34    11    13    1
    35    11    14    1
@<TRIPOS>MOLECULE
*****
 32 35 0 0 0
SMALL
GASTEIGER

@<TRIPOS>ATOM
      1 C         138.1977  139.9401  160.1315 C.ar    1  UNL1        0.3283
      2 N         138.9638  141.1353  160.6161 N.ar    1  UNL1       -0.1741
      3 C         139.1171  142.3369  159.7315 C.ar    1  UNL1        0.1773
      4 N         138.5045  142.3434  158.3623 N.ar    1  UNL1       -0.1937
      5 C         137.7385  141.1482  157.8777 C.ar    1  UNL1        0.2255
      6 N         137.5851  139.9465  158.7623 N.ar    1  UNL1       -0.1607
      7 C         139.8832  143.5321  160.2160 C.ar    1  UNL1        0.0871
      8 C         140.8747  144.3265  159.4186 C.ar    1  UNL1        0.1104
      9 N         141.3964  145.4281  160.2929 N.ar    1  UNL1       -0.2228
     10 C         140.7273  145.3145  161.6306 C.ar    1  UNL1        0.1568
     11 N         140.9538  146.2147  162.8089 N.pl3   1  UNL1       -0.3375
     12 S         139.7920  144.1427  161.5831 S.2     1  UNL1       -0.0488
     13 H         141.5917  146.9616  162.7424 H       1  UNL1        0.1442
     14 H         140.4645  146.0586  163.6488 H       1  UNL1        0.1442
     15 N         137.1259  141.1547  156.5085 N.pl3   1  UNL1       -0.2729
     16 C         137.9755  141.4499  155.3081 C.3     1  UNL1        0.1257
     17 C         137.3629  141.4564  153.9389 C.3     1  UNL1        0.1637
     18 O         135.9007  141.1676  153.7702 O.3     1  UNL1       -0.3501
     19 C         135.0510  140.8724  154.9706 C.3     1  UNL1        0.1637
     20 C         135.6636  140.8659  156.3398 C.3     1  UNL1        0.1257
     21 O         138.0444  138.7385  161.0161 O.3     1  UNL1       -0.4222
     22 C         138.5997  139.1335  165.4642 C.ar    1  UNL1        0.0538
     23 C         137.9957  140.2610  164.6808 C.ar    1  UNL1        0.0076
     24 C         137.8106  140.1293  163.1981 C.ar    1  UNL1        0.0378
     25 C         138.2295  138.8701  162.4988 C.ar    1  UNL1        0.1487
     26 C         138.8335  137.7426  163.2823 C.ar    1  UNL1        0.0378
     27 C         139.0186  137.8743  164.7650 C.ar    1  UNL1        0.0076
     28 C         140.1913  140.0751  168.9756 C.3     1  UNL1        0.1152
     29 N         140.0062  139.9434  167.4929 N.am    1  UNL1       -0.2726
     30 C         141.0425  140.4901  166.5563 C.3     1  UNL1        0.1152
     31 C         138.7848  139.2651  166.9469 C.2     1  UNL1        0.2491
     32 O         137.7486  138.7185  167.8836 O.2     1  UNL1       -0.2699
@<TRIPOS>BOND
     1    28    29    1
     2    29    30    1
     3    29    31   am
     4    31    32    2
     5    31    22    1
     6    22    23   ar
     7    23    24   ar
     8    24    25   ar
     9    25    21    1
    10    21     1    1
    11     1     2   ar
    12     2     3   ar
    13     3     7    1
    14     7     8   ar
    15     8     9   ar
    16     9    10   ar
    17    10    11    1
    18    10    12   ar
    19     3     4   ar
    20     4     5   ar
    21     5    15    1
    22    15    16    1
    23    16    17    1
    24    17    18    1
    25    18    19    1
    26    19    20    1
    27     5     6   ar
    28    25    26   ar
    29    26    27   ar
    30    27    22   ar
    31     6     1   ar
    32    12     7   ar
    33    20    15    1
    34    11    13    1
    35    11    14    1
@<TRIPOS>MOLECULE
*****
 32 35 0 0 0
SMALL
GASTEIGER

@<TRIPOS>ATOM
      1 C         139.7279  139.0111  162.4555 C.ar    1  UNL1        0.3283
      2 N         140.2139  138.3507  161.1994 N.ar    1  UNL1       -0.1741
      3 C         140.5529  139.1821  159.9978 C.ar    1  UNL1        0.1773
      4 N         140.4059  140.6739  160.0523 N.ar    1  UNL1       -0.1937
      5 C         139.9199  141.3343  161.3084 C.ar    1  UNL1        0.2255
      6 N         139.5809  140.5028  162.5100 N.ar    1  UNL1       -0.1607
      7 C         141.0389  138.5218  158.7417 C.ar    1  UNL1        0.0871
      8 C         140.1790  138.0225  157.6186 C.ar    1  UNL1        0.1104
      9 N         141.0788  137.4369  156.5710 N.ar    1  UNL1       -0.2228
     10 C         142.4948  137.5744  157.0466 C.ar    1  UNL1        0.1568
     11 N         143.7203  137.1210  156.3099 N.pl3   1  UNL1       -0.3375
     12 S         142.4701  138.2449  158.3882 S.2     1  UNL1       -0.0488
     13 H         143.6337  136.6883  155.4298 H       1  UNL1        0.1442
     14 H         144.6112  137.2560  156.7066 H       1  UNL1        0.1442
     15 N         139.7730  142.8261  161.3629 N.pl3   1  UNL1       -0.2729
     16 C         140.3294  143.6754  160.2588 C.3     1  UNL1        0.1257
     17 C         140.1824  145.1671  160.3133 C.3     1  UNL1        0.1637
     18 O         139.4790  145.8096  161.4719 O.3     1  UNL1       -0.3501
     19 C         138.9226  144.9604  162.5761 C.3     1  UNL1        0.1637
     20 C         139.0696  143.4686  162.5216 C.3     1  UNL1        0.1257
     21 O         139.3889  138.1796  163.6570 O.3     1  UNL1       -0.4222
     22 C         139.9221  139.8765  167.7906 C.ar    1  UNL1        0.0538
     23 C         138.5511  139.5209  167.2969 C.ar    1  UNL1        0.0076
     24 C         138.3733  138.9553  165.9191 C.ar    1  UNL1        0.0378
     25 C         139.5666  138.7453  165.0349 C.ar    1  UNL1        0.1487
     26 C         140.9376  139.1009  165.5285 C.ar    1  UNL1        0.0378
     27 C         141.1154  139.6665  166.9064 C.ar    1  UNL1        0.0076
     28 C         140.5194  142.4769  170.7285 C.3     1  UNL1        0.1152
     29 N         140.3416  141.9113  169.3506 N.am    1  UNL1       -0.2726
     30 C         140.4057  142.8148  168.1550 C.3     1  UNL1        0.1152
     31 C         140.0999  140.4422  169.1684 C.2     1  UNL1        0.2491
     32 O         140.0358  139.5387  170.3641 O.2     1  UNL1       -0.2699
@<TRIPOS>BOND
     1    28    29    1
     2    29    30    1
     3    29    31   am
     4    31    32    2
     5    31    22    1
     6    22    23   ar
     7    23    24   ar
     8    24    25   ar
     9    25    21    1
    10    21     1    1
    11     1     2   ar
    12     2     3   ar
    13     3     7    1
    14     7     8   ar
    15     8     9   ar
    16     9    10   ar
    17    10    11    1
    18    10    12   ar
    19     3     4   ar
    20     4     5   ar
    21     5    15    1
    22    15    16    1
    23    16    17    1
    24    17    18    1
    25    18    19    1
    26    19    20    1
    27     5     6   ar
    28    25    26   ar
    29    26    27   ar
    30    27    22   ar
    31     6     1   ar
    32    12     7   ar
    33    20    15    1
    34    11    13    1
    35    11    14    1
@<TRIPOS>MOLECULE
*****
 32 35 0 0 0
SMALL
GASTEIGER

@<TRIPOS>ATOM
      1 C         142.6641  140.9450  164.7310 C.ar    1  UNL1        0.3283
      2 N         141.7800  141.8030  163.8752 N.ar    1  UNL1       -0.1741
      3 C         140.8661  142.8077  164.5119 C.ar    1  UNL1        0.1773
      4 N         140.8362  142.9544  166.0044 N.ar    1  UNL1       -0.1937
      5 C         141.7202  142.0964  166.8602 C.ar    1  UNL1        0.2255
      6 N         142.6342  141.0917  166.2235 N.ar    1  UNL1       -0.1607
      7 C         139.9821  143.6657  163.6561 C.ar    1  UNL1        0.0871
      8 C         138.5107  143.4728  163.4372 C.ar    1  UNL1        0.1104
      9 N         138.0335  144.5551  162.5148 N.ar    1  UNL1       -0.2228
     10 C         139.2099  145.4170  162.1636 C.ar    1  UNL1        0.1568
     11 N         139.1862  146.6177  161.2649 N.pl3   1  UNL1       -0.3375
     12 S         140.4143  144.8673  162.8691 S.2     1  UNL1       -0.0488
     13 H         138.3422  146.9021  160.8456 H       1  UNL1        0.1442
     14 H         140.0148  147.1214  161.0945 H       1  UNL1        0.1442
     15 N         141.6904  142.2431  168.3527 N.pl3   1  UNL1       -0.2729
     16 C         140.3884  142.1404  169.0905 C.3     1  UNL1        0.1257
     17 C         140.3586  142.2871  170.5830 C.3     1  UNL1        0.1637
     18 O         141.6306  142.5365  171.3377 O.3     1  UNL1       -0.3501
     19 C         142.9326  142.6392  170.5999 C.3     1  UNL1        0.1637
     20 C         142.9625  142.4925  169.1074 C.3     1  UNL1        0.1257
     21 O         143.5779  139.9404  164.0942 O.3     1  UNL1       -0.4222
     22 C         142.7379  138.4561  159.9299 C.ar    1  UNL1        0.0538
     23 C         143.8165  139.4727  160.1605 C.ar    1  UNL1        0.0076
     24 C         144.0965  139.9674  161.5486 C.ar    1  UNL1        0.0378
     25 C         143.2979  139.4456  162.7061 C.ar    1  UNL1        0.1487
     26 C         142.2194  138.4291  162.4756 C.ar    1  UNL1        0.0378
     27 C         141.9393  137.9343  161.0875 C.ar    1  UNL1        0.0076
     28 C         141.1982  138.1942  156.2816 C.3     1  UNL1        0.1152
     29 N         141.4782  138.6889  157.6697 N.am    1  UNL1       -0.2726
     30 C         140.7784  139.9113  158.1856 C.3     1  UNL1        0.1152
     31 C         142.4579  137.9614  158.5418 C.2     1  UNL1        0.2491
     32 O         143.1577  136.7391  158.0259 O.2     1  UNL1       -0.2699
@<TRIPOS>BOND
     1    28    29    1
     2    29    30    1
     3    29    31   am
     4    31    32    2
     5    31    22    1
     6    22    23   ar
     7    23    24   ar
     8    24    25   ar
     9    25    21    1
    10    21     1    1
    11     1     2   ar
    12     2     3   ar
    13     3     7    1
    14     7     8   ar
    15     8     9   ar
    16     9    10   ar
    17    10    11    1
    18    10    12   ar
    19     3     4   ar
    20     4     5   ar
    21     5    15    1
    22    15    16    1
    23    16    17    1
    24    17    18    1
    25    18    19    1
    26    19    20    1
    27     5     6   ar
    28    25    26   ar
    29    26    27   ar
    30    27    22   ar
    31     6     1   ar
    32    12     7   ar
    33    20    15    1
    34    11    13    1
    35    11    14    1
@<TRIPOS>MOLECULE
*****
 32 35 0 0 0
SMALL
GASTEIGER

@<TRIPOS>ATOM
      1 C         139.2813  141.9848  164.2397 C.ar    1  UNL1        0.3283
      2 N         139.1630  141.8101  165.7249 N.ar    1  UNL1       -0.1741
      3 C         140.3975  141.6522  166.5621 C.ar    1  UNL1        0.1773
      4 N         141.7503  141.6689  165.9143 N.ar    1  UNL1       -0.1937
      5 C         141.8686  141.8436  164.4293 C.ar    1  UNL1        0.2255
      6 N         140.6341  142.0015  163.5919 N.ar    1  UNL1       -0.1607
      7 C         140.2792  141.4775  168.0473 C.ar    1  UNL1        0.0871
      8 C         140.4004  142.5631  169.0752 C.ar    1  UNL1        0.1104
      9 N         140.2151  141.9430  170.4284 N.ar    1  UNL1       -0.2228
     10 C         139.9793  140.4741  170.2368 C.ar    1  UNL1        0.1568
     11 N         139.7451  139.4693  171.3256 N.pl3   1  UNL1       -0.3375
     12 S         140.0190  140.1863  168.7651 S.2     1  UNL1       -0.0488
     13 H         139.7371  139.7567  172.2672 H       1  UNL1        0.1442
     14 H         139.5993  138.5225  171.0987 H       1  UNL1        0.1442
     15 N         143.2214  141.8604  163.7815 N.pl3   1  UNL1       -0.2729
     16 C         143.3766  142.3783  162.3824 C.3     1  UNL1        0.1257
     17 C         144.7294  142.3951  161.7346 C.3     1  UNL1        0.1637
     18 O         145.9270  141.8939  162.4859 O.3     1  UNL1       -0.3501
     19 C         145.7719  141.3760  163.8851 C.3     1  UNL1        0.1637
     20 C         144.4191  141.3592  164.5329 C.3     1  UNL1        0.1257
     21 O         138.0468  142.1427  163.4025 O.3     1  UNL1       -0.4222
     22 C         138.0837  140.8894  159.0807 C.ar    1  UNL1        0.0538
     23 C         138.4043  142.3065  159.4534 C.ar    1  UNL1        0.0076
     24 C         138.3920  142.7242  160.8940 C.ar    1  UNL1        0.0378
     25 C         138.0591  141.7249  161.9619 C.ar    1  UNL1        0.1487
     26 C         137.7385  140.3078  161.5892 C.ar    1  UNL1        0.0378
     27 C         137.7508  139.8900  160.1486 C.ar    1  UNL1        0.0076
     28 C         139.3844  139.5858  155.5652 C.3     1  UNL1        0.1152
     29 N         139.3721  140.0035  157.0058 N.am    1  UNL1       -0.2726
     30 C         140.6360  139.9532  157.8121 C.3     1  UNL1        0.1152
     31 C         138.0960  140.4716  157.6401 C.2     1  UNL1        0.2491
     32 O         136.8322  140.5219  156.8338 O.2     1  UNL1       -0.2699
@<TRIPOS>BOND
     1    28    29    1
     2    29    30    1
     3    29    31   am
     4    31    32    2
     5    31    22    1
     6    22    23   ar
     7    23    24   ar
     8    24    25   ar
     9    25    21    1
    10    21     1    1
    11     1     2   ar
    12     2     3   ar
    13     3     7    1
    14     7     8   ar
    15     8     9   ar
    16     9    10   ar
    17    10    11    1
    18    10    12   ar
    19     3     4   ar
    20     4     5   ar
    21     5    15    1
    22    15    16    1
    23    16    17    1
    24    17    18    1
    25    18    19    1
    26    19    20    1
    27     5     6   ar
    28    25    26   ar
    29    26    27   ar
    30    27    22   ar
    31     6     1   ar
    32    12     7   ar
    33    20    15    1
    34    11    13    1
    35    11    14    1
@<TRIPOS>MOLECULE
*****
 32 35 0 0 0
SMALL
GASTEIGER

@<TRIPOS>ATOM
      1 C         139.8667  139.0223  160.1483 C.ar    1  UNL1        0.3283
      2 N         140.8525  138.4491  159.1737 N.ar    1  UNL1       -0.1741
      3 C         141.6686  139.3623  158.3077 C.ar    1  UNL1        0.1773
      4 N         141.4990  140.8487  158.4163 N.ar    1  UNL1       -0.1937
      5 C         140.5133  141.4219  159.3908 C.ar    1  UNL1        0.2255
      6 N         139.6971  140.5087  160.2568 N.ar    1  UNL1       -0.1607
      7 C         142.6544  138.7891  157.3332 C.ar    1  UNL1        0.0871
      8 C         143.6883  139.5607  156.5680 C.ar    1  UNL1        0.1104
      9 N         144.4522  138.5921  155.7146 N.ar    1  UNL1       -0.2228
     10 C         143.8904  137.2217  155.9524 C.ar    1  UNL1        0.1568
     11 N         144.3576  135.9525  155.3037 N.pl3   1  UNL1       -0.3375
     12 S         142.7792  137.3435  156.9527 S.2     1  UNL1       -0.0488
     13 H         145.0986  135.9747  154.6559 H       1  UNL1        0.1442
     14 H         143.9232  135.0974  155.5257 H       1  UNL1        0.1442
     15 N         140.3436  142.9083  159.4993 N.pl3   1  UNL1       -0.2729
     16 C         140.3654  143.7579  158.2633 C.3     1  UNL1        0.1257
     17 C         140.1958  145.2443  158.3718 C.3     1  UNL1        0.1637
     18 O         140.0044  145.8812  159.7163 O.3     1  UNL1       -0.3501
     19 C         139.9826  145.0316  160.9524 C.3     1  UNL1        0.1637
     20 C         140.1523  143.5452  160.8439 C.3     1  UNL1        0.1257
     21 O         139.0506  138.1091  161.0143 O.3     1  UNL1       -0.4222
     22 C         138.7306  138.8908  165.4343 C.ar    1  UNL1        0.0538
     23 C         139.4540  137.6741  164.9383 C.ar    1  UNL1        0.0076
     24 C         139.5607  137.4135  163.4650 C.ar    1  UNL1        0.0378
     25 C         138.9439  138.3697  162.4876 C.ar    1  UNL1        0.1487
     26 C         138.2204  139.5864  162.9836 C.ar    1  UNL1        0.0378
     27 C         138.1138  139.8470  164.4570 C.ar    1  UNL1        0.0076
     28 C         139.5006  140.3224  169.0548 C.3     1  UNL1        0.1152
     29 N         139.6073  140.0618  167.5814 N.am    1  UNL1       -0.2726
     30 C         140.6975  140.7116  166.7818 C.3     1  UNL1        0.1152
     31 C         138.6239  139.1514  166.9076 C.2     1  UNL1        0.2491
     32 O         137.5338  138.5016  167.7072 O.2     1  UNL1       -0.2699
@<TRIPOS>BOND
     1    28    29    1
     2    29    30    1
     3    29    31   am
     4    31    32    2
     5    31    22    1
     6    22    23   ar
     7    23    24   ar
     8    24    25   ar
     9    25    21    1
    10    21     1    1
    11     1     2   ar
    12     2     3   ar
    13     3     7    1
    14     7     8   ar
    15     8     9   ar
    16     9    10   ar
    17    10    11    1
    18    10    12   ar
    19     3     4   ar
    20     4     5   ar
    21     5    15    1
    22    15    16    1
    23    16    17    1
    24    17    18    1
    25    18    19    1
    26    19    20    1
    27     5     6   ar
    28    25    26   ar
    29    26    27   ar
    30    27    22   ar
    31     6     1   ar
    32    12     7   ar
    33    20    15    1
    34    11    13    1
    35    11    14    1
@<TRIPOS>MOLECULE
*****
 32 35 0 0 0
SMALL
GASTEIGER

@<TRIPOS>ATOM
      1 C         142.6269  139.2109  159.9959 C.ar    1  UNL1        0.3283
      2 N         142.5965  140.4242  160.8774 N.ar    1  UNL1       -0.1741
      3 C         143.2812  141.6855  160.4412 C.ar    1  UNL1        0.1773
      4 N         143.9963  141.7336  159.1236 N.ar    1  UNL1       -0.1937
      5 C         144.0268  140.5204  158.2421 C.ar    1  UNL1        0.2255
      6 N         143.3421  139.2590  158.6782 N.ar    1  UNL1       -0.1607
      7 C         143.2507  142.8989  161.3228 C.ar    1  UNL1        0.0871
      8 C         144.4405  143.5635  161.9494 C.ar    1  UNL1        0.1104
      9 N         143.9502  144.7359  162.7463 N.ar    1  UNL1       -0.2228
     10 C         142.4573  144.7959  162.6122 C.ar    1  UNL1        0.1568
     11 N         141.5552  145.8126  163.2465 N.pl3   1  UNL1       -0.3375
     12 S         142.0250  143.6604  161.7324 S.2     1  UNL1       -0.0488
     13 H         141.9355  146.5241  163.8108 H       1  UNL1        0.1442
     14 H         140.5829  145.7685  163.0985 H       1  UNL1        0.1442
     15 N         144.7419  140.5685  156.9244 N.pl3   1  UNL1       -0.2729
     16 C         144.4168  139.5654  155.8576 C.3     1  UNL1        0.1257
     17 C         145.1320  139.6135  154.5399 C.3     1  UNL1        0.1637
     18 O         146.1722  140.6646  154.2890 O.3     1  UNL1       -0.3501
     19 C         146.4974  141.6678  155.3559 C.3     1  UNL1        0.1637
     20 C         145.7822  141.6197  156.6736 C.3     1  UNL1        0.1257
     21 O         141.9423  137.9496  160.4320 O.3     1  UNL1       -0.4222
     22 C         139.5296  137.8969  164.2302 C.ar    1  UNL1        0.0538
     23 C         138.8609  138.1945  162.9210 C.ar    1  UNL1        0.0076
     24 C         139.6651  138.2120  161.6549 C.ar    1  UNL1        0.0378
     25 C         141.1381  137.9320  161.6981 C.ar    1  UNL1        0.1487
     26 C         141.8068  137.6344  163.0073 C.ar    1  UNL1        0.0378
     27 C         141.0026  137.6169  164.2734 C.ar    1  UNL1        0.0076
     28 C         137.8640  139.0828  167.6316 C.3     1  UNL1        0.1152
     29 N         138.6682  139.1004  166.3655 N.am    1  UNL1       -0.2726
     30 C         139.4153  140.3392  165.9687 C.3     1  UNL1        0.1152
     31 C         138.7254  137.8793  165.4963 C.2     1  UNL1        0.2491
     32 O         137.9783  136.6406  165.8931 O.2     1  UNL1       -0.2699
@<TRIPOS>BOND
     1    28    29    1
     2    29    30    1
     3    29    31   am
     4    31    32    2
     5    31    22    1
     6    22    23   ar
     7    23    24   ar
     8    24    25   ar
     9    25    21    1
    10    21     1    1
    11     1     2   ar
    12     2     3   ar
    13     3     7    1
    14     7     8   ar
    15     8     9   ar
    16     9    10   ar
    17    10    11    1
    18    10    12   ar
    19     3     4   ar
    20     4     5   ar
    21     5    15    1
    22    15    16    1
    23    16    17    1
    24    17    18    1
    25    18    19    1
    26    19    20    1
    27     5     6   ar
    28    25    26   ar
    29    26    27   ar
    30    27    22   ar
    31     6     1   ar
    32    12     7   ar
    33    20    15    1
    34    11    13    1
    35    11    14    1
