@<TRIPOS>MOLECULE
*****
 25 28 0 0 0
SMALL
GASTEIGER

@<TRIPOS>ATOM
      1 C         139.9235  138.0348  161.6899 C.3     1  UNL1        0.0497
      2 C         141.0067  138.4911  162.6218 C.ar    1  UNL1        0.0347
      3 C         142.4820  138.3257  162.4071 C.ar    1  UNL1        0.0070
      4 C         143.1919  138.9254  163.5846 C.ar    1  UNL1        0.0154
      5 C         142.1553  139.4614  164.5271 C.ar    1  UNL1        0.0593
      6 N         140.8048  139.1930  163.9320 N.ar    1  UNL1       -0.3328
      7 C         142.4223  140.1456  165.8349 C.ar    1  UNL1        0.0158
      8 C         142.3103  139.3789  167.1191 C.ar    1  UNL1        0.0011
      9 C         142.5773  140.0631  168.4270 C.ar    1  UNL1       -0.0042
     10 C         142.9564  141.5141  168.4506 C.ar    1  UNL1       -0.0225
     11 C         143.0685  142.2810  167.1663 C.ar    1  UNL1       -0.0042
     12 C         142.8015  141.5968  165.8585 C.ar    1  UNL1        0.0011
     13 C         143.2234  142.1984  169.7584 C.3     1  UNL1        0.0224
     14 C         144.5770  142.7813  170.0373 C.3     1  UNL1        0.0047
     15 C         142.1368  142.2996  170.7875 C.3     1  UNL1        0.0047
     16 C         139.4842  139.5617  164.5403 C.3     1  UNL1        0.0853
     17 C         138.2857  140.4621  164.5960 C.3     1  UNL1        0.0245
     18 C         138.3953  139.3001  165.5382 C.3     1  UNL1        0.0245
     19 C         143.1331  137.6750  161.2228 C.3     1  UNL1        0.1004
     20 N         143.2159  138.4069  159.9161 N.3     1  UNL1       -0.2646
     21 C         143.8215  139.7781  159.8616 C.3     1  UNL1        0.1049
     22 C         143.9043  140.5100  158.5549 C.3     1  UNL1        0.1595
     23 O         143.3813  139.8707  157.3028 O.3     1  UNL1       -0.3508
     24 C         142.7756  138.4995  157.3573 C.3     1  UNL1        0.1595
     25 C         142.6929  137.7676  158.6640 C.3     1  UNL1        0.1049
@<TRIPOS>BOND
     1     1     2    1
     2     2     3   ar
     3     3    19    1
     4    19    20    1
     5    20    21    1
     6    21    22    1
     7    22    23    1
     8    23    24    1
     9    24    25    1
    10     3     4   ar
    11     4     5   ar
    12     5     7    1
    13     7     8   ar
    14     8     9   ar
    15     9    10   ar
    16    10    13    1
    17    13    14    1
    18    13    15    1
    19    10    11   ar
    20    11    12   ar
    21     5     6   ar
    22     6    16    1
    23    16    17    1
    24    17    18    1
    25     6     2   ar
    26    18    16    1
    27    25    20    1
    28    12     7   ar
@<TRIPOS>MOLECULE
*****
 25 28 0 0 0
SMALL
GASTEIGER

@<TRIPOS>ATOM
      1 C         138.1347  141.2842  160.8719 C.3     1  UNL1        0.0497
      2 C         138.7164  140.7580  162.1504 C.ar    1  UNL1        0.0347
      3 C         139.3520  139.4129  162.3420 C.ar    1  UNL1        0.0070
      4 C         139.7930  139.3081  163.7719 C.ar    1  UNL1        0.0154
      5 C         139.4299  140.5884  164.4640 C.ar    1  UNL1        0.0593
      6 N         138.7645  141.4845  163.4619 N.ar    1  UNL1       -0.3328
      7 C         139.6871  140.9152  165.9052 C.ar    1  UNL1        0.0158
      8 C         140.4075  142.1790  166.2707 C.ar    1  UNL1        0.0011
      9 C         140.6647  142.5058  167.7119 C.ar    1  UNL1       -0.0042
     10 C         140.2014  141.5688  168.7876 C.ar    1  UNL1       -0.0225
     11 C         139.4810  140.3049  168.4222 C.ar    1  UNL1       -0.0042
     12 C         139.2238  139.9781  166.9810 C.ar    1  UNL1        0.0011
     13 C         140.4586  141.8956  170.2288 C.3     1  UNL1        0.0224
     14 C         141.4667  141.1050  171.0088 C.3     1  UNL1        0.0047
     15 C         139.7076  143.0131  170.8900 C.3     1  UNL1        0.0047
     16 C         138.2395  142.8647  163.7250 C.3     1  UNL1        0.0853
     17 C         137.7874  144.2015  163.2163 C.3     1  UNL1        0.0245
     18 C         137.7821  143.9186  164.6894 C.3     1  UNL1        0.0245
     19 C         139.5176  138.3579  161.2887 C.3     1  UNL1        0.1004
     20 N         140.7724  138.3075  160.4683 N.3     1  UNL1       -0.2646
     21 C         140.7209  138.6085  158.9998 C.3     1  UNL1        0.1049
     22 C         141.9757  138.5581  158.1795 C.3     1  UNL1        0.1595
     23 O         143.2819  138.2067  158.8277 O.3     1  UNL1       -0.3508
     24 C         143.3334  137.9057  160.2963 C.3     1  UNL1        0.1595
     25 C         142.0786  137.9561  161.1166 C.3     1  UNL1        0.1049
@<TRIPOS>BOND
     1     1     2    1
     2     2     3   ar
     3     3    19    1
     4    19    20    1
     5    20    21    1
     6    21    22    1
     7    22    23    1
     8    23    24    1
     9    24    25    1
    10     3     4   ar
    11     4     5   ar
    12     5     7    1
    13     7     8   ar
    14     8     9   ar
    15     9    10   ar
    16    10    13    1
    17    13    14    1
    18    13    15    1
    19    10    11   ar
    20    11    12   ar
    21     5     6   ar
    22     6    16    1
    23    16    17    1
    24    17    18    1
    25     6     2   ar
    26    18    16    1
    27    25    20    1
    28    12     7   ar
@<TRIPOS>MOLECULE
*****
 25 28 0 0 0
SMALL
GASTEIGER

@<TRIPOS>ATOM
      1 C         138.1767  142.7249  161.2111 C.3     1  UNL1        0.0497
      2 C         139.1935  143.1579  162.2252 C.ar    1  UNL1        0.0347
      3 C         140.0562  144.3821  162.1415 C.ar    1  UNL1        0.0070
      4 C         140.9221  144.4235  163.3657 C.ar    1  UNL1        0.0154
      5 C         140.5946  143.2249  164.2059 C.ar    1  UNL1        0.0593
      6 N         139.5263  142.4427  163.5010 N.ar    1  UNL1       -0.3328
      7 C         141.2248  142.8706  165.5202 C.ar    1  UNL1        0.0158
      8 C         140.4014  142.8813  166.7738 C.ar    1  UNL1        0.0011
      9 C         141.0315  142.5271  168.0881 C.ar    1  UNL1       -0.0042
     10 C         142.4851  142.1621  168.1487 C.ar    1  UNL1       -0.0225
     11 C         143.3086  142.1513  166.8950 C.ar    1  UNL1       -0.0042
     12 C         142.6785  142.5056  165.5808 C.ar    1  UNL1        0.0011
     13 C         143.1153  141.8078  169.4630 C.3     1  UNL1        0.0224
     14 C         142.6146  140.6270  170.2408 C.3     1  UNL1        0.0047
     15 C         144.2462  142.6343  169.9996 C.3     1  UNL1        0.0047
     16 C         138.9005  141.1688  163.9866 C.3     1  UNL1        0.0853
     17 C         138.3936  139.7839  163.7131 C.3     1  UNL1        0.0245
     18 C         138.3237  140.3475  165.1014 C.3     1  UNL1        0.0245
     19 C         140.0535  145.3883  161.0291 C.3     1  UNL1        0.1004
     20 N         140.7997  145.1044  159.7591 N.3     1  UNL1       -0.2646
     21 C         141.9295  144.1178  159.7577 C.3     1  UNL1        0.1049
     22 C         142.6756  143.8340  158.4878 C.3     1  UNL1        0.1595
     23 O         142.2919  144.5367  157.2194 O.3     1  UNL1       -0.3508
     24 C         141.1620  145.5233  157.2208 C.3     1  UNL1        0.1595
     25 C         140.4159  145.8072  158.4907 C.3     1  UNL1        0.1049
@<TRIPOS>BOND
     1     1     2    1
     2     2     3   ar
     3     3    19    1
     4    19    20    1
     5    20    21    1
     6    21    22    1
     7    22    23    1
     8    23    24    1
     9    24    25    1
    10     3     4   ar
    11     4     5   ar
    12     5     7    1
    13     7     8   ar
    14     8     9   ar
    15     9    10   ar
    16    10    13    1
    17    13    14    1
    18    13    15    1
    19    10    11   ar
    20    11    12   ar
    21     5     6   ar
    22     6    16    1
    23    16    17    1
    24    17    18    1
    25     6     2   ar
    26    18    16    1
    27    25    20    1
    28    12     7   ar
@<TRIPOS>MOLECULE
*****
 25 28 0 0 0
SMALL
GASTEIGER

@<TRIPOS>ATOM
      1 C         138.0786  138.3550  162.1912 C.3     1  UNL1        0.0497
      2 C         139.0791  139.2586  162.8488 C.ar    1  UNL1        0.0347
      3 C         140.0024  140.2103  162.1475 C.ar    1  UNL1        0.0070
      4 C         140.8259  140.9091  163.1885 C.ar    1  UNL1        0.0154
      5 C         140.4115  140.3893  164.5332 C.ar    1  UNL1        0.0593
      6 N         139.3319  139.3693  164.3232 N.ar    1  UNL1       -0.3328
      7 C         140.9773  140.8149  165.8556 C.ar    1  UNL1        0.0158
      8 C         142.1032  140.0404  166.4738 C.ar    1  UNL1        0.0011
      9 C         142.6690  140.4659  167.7962 C.ar    1  UNL1       -0.0042
     10 C         142.1089  141.6660  168.5004 C.ar    1  UNL1       -0.0225
     11 C         140.9829  142.4406  167.8822 C.ar    1  UNL1       -0.0042
     12 C         140.4171  142.0150  166.5598 C.ar    1  UNL1        0.0011
     13 C         142.6747  142.0915  169.8227 C.3     1  UNL1        0.0224
     14 C         141.8068  142.0875  171.0461 C.3     1  UNL1        0.0047
     15 C         144.1085  142.5211  169.9218 C.3     1  UNL1        0.0047
     16 C         138.6285  138.5957  165.3989 C.3     1  UNL1        0.0853
     17 C         138.1710  137.2861  165.9694 C.3     1  UNL1        0.0245
     18 C         137.8679  138.5656  166.6913 C.3     1  UNL1        0.0245
     19 C         140.0874  140.4253  160.6655 C.3     1  UNL1        0.1004
     20 N         141.2903  139.9492  159.9063 N.3     1  UNL1       -0.2646
     21 C         141.3192  138.5599  159.3415 C.3     1  UNL1        0.1049
     22 C         142.5221  138.0838  158.5824 C.3     1  UNL1        0.1595
     23 O         143.6960  138.9970  158.3879 O.3     1  UNL1       -0.3508
     24 C         143.6671  140.3863  158.9526 C.3     1  UNL1        0.1595
     25 C         142.4643  140.8624  159.7118 C.3     1  UNL1        0.1049
@<TRIPOS>BOND
     1     1     2    1
     2     2     3   ar
     3     3    19    1
     4    19    20    1
     5    20    21    1
     6    21    22    1
     7    22    23    1
     8    23    24    1
     9    24    25    1
    10     3     4   ar
    11     4     5   ar
    12     5     7    1
    13     7     8   ar
    14     8     9   ar
    15     9    10   ar
    16    10    13    1
    17    13    14    1
    18    13    15    1
    19    10    11   ar
    20    11    12   ar
    21     5     6   ar
    22     6    16    1
    23    16    17    1
    24    17    18    1
    25     6     2   ar
    26    18    16    1
    27    25    20    1
    28    12     7   ar
@<TRIPOS>MOLECULE
*****
 25 28 0 0 0
SMALL
GASTEIGER

@<TRIPOS>ATOM
      1 C         137.8363  139.6944  161.7788 C.3     1  UNL1        0.0497
      2 C         138.5762  140.5770  162.7398 C.ar    1  UNL1        0.0347
      3 C         138.7195  142.0666  162.6377 C.ar    1  UNL1        0.0070
      4 C         139.5345  142.5351  163.8065 C.ar    1  UNL1        0.0154
      5 C         139.8950  141.3351  164.6311 C.ar    1  UNL1        0.0593
      6 N         139.3027  140.1249  163.9718 N.ar    1  UNL1       -0.3328
      7 C         140.7054  141.3437  165.8933 C.ar    1  UNL1        0.0158
      8 C         140.0910  140.8846  167.1822 C.ar    1  UNL1        0.0011
      9 C         140.9014  140.8932  168.4444 C.ar    1  UNL1       -0.0042
     10 C         142.3262  141.3610  168.4176 C.ar    1  UNL1       -0.0225
     11 C         142.9408  141.8202  167.1286 C.ar    1  UNL1       -0.0042
     12 C         142.1303  141.8115  165.8665 C.ar    1  UNL1        0.0011
     13 C         143.1367  141.3696  169.6798 C.3     1  UNL1        0.0224
     14 C         144.0978  142.4899  169.9463 C.3     1  UNL1        0.0047
     15 C         142.9860  140.2579  170.6755 C.3     1  UNL1        0.0047
     16 C         139.4168  138.7108  164.4590 C.3     1  UNL1        0.0853
     17 C         138.8227  137.5280  165.1647 C.3     1  UNL1        0.0245
     18 C         140.2087  137.4444  164.5972 C.3     1  UNL1        0.0245
     19 C         138.1480  142.9352  161.5565 C.3     1  UNL1        0.1004
     20 N         139.0566  143.5700  160.5457 N.3     1  UNL1       -0.2646
     21 C         139.1266  143.0219  159.1512 C.3     1  UNL1        0.1049
     22 C         140.0351  143.6567  158.1406 C.3     1  UNL1        0.1595
     23 O         140.8737  144.8397  158.5244 O.3     1  UNL1       -0.3508
     24 C         140.8037  145.3879  159.9189 C.3     1  UNL1        0.1595
     25 C         139.8952  144.7530  160.9295 C.3     1  UNL1        0.1049
@<TRIPOS>BOND
     1     1     2    1
     2     2     3   ar
     3     3    19    1
     4    19    20    1
     5    20    21    1
     6    21    22    1
     7    22    23    1
     8    23    24    1
     9    24    25    1
    10     3     4   ar
    11     4     5   ar
    12     5     7    1
    13     7     8   ar
    14     8     9   ar
    15     9    10   ar
    16    10    13    1
    17    13    14    1
    18    13    15    1
    19    10    11   ar
    20    11    12   ar
    21     5     6   ar
    22     6    16    1
    23    16    17    1
    24    17    18    1
    25     6     2   ar
    26    18    16    1
    27    25    20    1
    28    12     7   ar
@<TRIPOS>MOLECULE
*****
 25 28 0 0 0
SMALL
GASTEIGER

@<TRIPOS>ATOM
      1 C         143.7385  139.6266  161.0188 C.3     1  UNL1        0.0497
      2 C         142.8393  139.7325  162.2147 C.ar    1  UNL1        0.0347
      3 C         141.5107  139.0564  162.3815 C.ar    1  UNL1        0.0070
      4 C         140.9611  139.4391  163.7237 C.ar    1  UNL1        0.0154
      5 C         141.9499  140.3518  164.3864 C.ar    1  UNL1        0.0593
      6 N         143.1107  140.5331  163.4537 N.ar    1  UNL1       -0.3328
      7 C         141.8037  140.9739  165.7434 C.ar    1  UNL1        0.0158
      8 C         140.8747  142.1350  165.9400 C.ar    1  UNL1        0.0011
      9 C         140.7284  142.7571  167.2971 C.ar    1  UNL1       -0.0042
     10 C         141.5112  142.2182  168.4575 C.ar    1  UNL1       -0.0225
     11 C         142.4403  141.0571  168.2609 C.ar    1  UNL1       -0.0042
     12 C         142.5866  140.4350  166.9039 C.ar    1  UNL1        0.0011
     13 C         141.3650  142.8403  169.8145 C.3     1  UNL1        0.0224
     14 C         142.5835  143.2543  170.5850 C.3     1  UNL1        0.0047
     15 C         140.0002  143.0484  170.4010 C.3     1  UNL1        0.0047
     16 C         144.3291  141.3684  163.7144 C.3     1  UNL1        0.0853
     17 C         144.9469  142.6807  164.0969 C.3     1  UNL1        0.0245
     18 C         145.8214  141.5029  163.7836 C.3     1  UNL1        0.0245
     19 C         140.8482  138.1557  161.3817 C.3     1  UNL1        0.1004
     20 N         139.9223  138.7313  160.3514 N.3     1  UNL1       -0.2646
     21 C         140.2569  138.6153  158.8938 C.3     1  UNL1        0.1049
     22 C         139.3310  139.1909  157.8637 C.3     1  UNL1        0.1595
     23 O         138.0705  139.8826  158.2910 O.3     1  UNL1       -0.3508
     24 C         137.7359  139.9987  159.7486 C.3     1  UNL1        0.1595
     25 C         138.6618  139.4231  160.7788 C.3     1  UNL1        0.1049
@<TRIPOS>BOND
     1     1     2    1
     2     2     3   ar
     3     3    19    1
     4    19    20    1
     5    20    21    1
     6    21    22    1
     7    22    23    1
     8    23    24    1
     9    24    25    1
    10     3     4   ar
    11     4     5   ar
    12     5     7    1
    13     7     8   ar
    14     8     9   ar
    15     9    10   ar
    16    10    13    1
    17    13    14    1
    18    13    15    1
    19    10    11   ar
    20    11    12   ar
    21     5     6   ar
    22     6    16    1
    23    16    17    1
    24    17    18    1
    25     6     2   ar
    26    18    16    1
    27    25    20    1
    28    12     7   ar
@<TRIPOS>MOLECULE
*****
 25 28 0 0 0
SMALL
GASTEIGER

@<TRIPOS>ATOM
      1 C         139.2948  138.7261  160.8424 C.3     1  UNL1        0.0497
      2 C         139.8075  139.8517  161.6909 C.ar    1  UNL1        0.0347
      3 C         140.0778  141.2526  161.2279 C.ar    1  UNL1        0.0070
      4 C         140.5772  142.0408  162.4023 C.ar    1  UNL1        0.0154
      5 C         140.6156  141.1271  163.5913 C.ar    1  UNL1        0.0593
      6 N         140.1399  139.7741  163.1516 N.ar    1  UNL1       -0.3328
      7 C         141.0529  141.5006  164.9766 C.ar    1  UNL1        0.0158
      8 C         142.5099  141.6919  165.2772 C.ar    1  UNL1        0.0011
      9 C         142.9472  142.0655  166.6625 C.ar    1  UNL1       -0.0042
     10 C         141.9275  142.2478  167.7473 C.ar    1  UNL1       -0.0225
     11 C         140.4704  142.0565  167.4468 C.ar    1  UNL1       -0.0042
     12 C         140.0331  141.6829  166.0614 C.ar    1  UNL1        0.0011
     13 C         142.3648  142.6213  169.1326 C.3     1  UNL1        0.0224
     14 C         141.4371  143.3827  170.0322 C.3     1  UNL1        0.0047
     15 C         143.7300  142.2335  169.6183 C.3     1  UNL1        0.0047
     16 C         140.0179  138.5572  164.0201 C.3     1  UNL1        0.0853
     17 C         139.2057  137.6923  164.9378 C.3     1  UNL1        0.0245
     18 C         140.6190  137.3144  164.6067 C.3     1  UNL1        0.0245
     19 C         139.8828  141.7738  159.8349 C.3     1  UNL1        0.1004
     20 N         140.7596  142.8750  159.3166 N.3     1  UNL1       -0.2646
     21 C         140.2424  144.2818  159.2599 C.3     1  UNL1        0.1049
     22 C         141.1192  145.3829  158.7416 C.3     1  UNL1        0.1595
     23 O         142.5132  145.0773  158.2799 O.3     1  UNL1       -0.3508
     24 C         143.0305  143.6704  158.3366 C.3     1  UNL1        0.1595
     25 C         142.1537  142.5693  158.8549 C.3     1  UNL1        0.1049
@<TRIPOS>BOND
     1     1     2    1
     2     2     3   ar
     3     3    19    1
     4    19    20    1
     5    20    21    1
     6    21    22    1
     7    22    23    1
     8    23    24    1
     9    24    25    1
    10     3     4   ar
    11     4     5   ar
    12     5     7    1
    13     7     8   ar
    14     8     9   ar
    15     9    10   ar
    16    10    13    1
    17    13    14    1
    18    13    15    1
    19    10    11   ar
    20    11    12   ar
    21     5     6   ar
    22     6    16    1
    23    16    17    1
    24    17    18    1
    25     6     2   ar
    26    18    16    1
    27    25    20    1
    28    12     7   ar
@<TRIPOS>MOLECULE
*****
 25 28 0 0 0
SMALL
GASTEIGER

@<TRIPOS>ATOM
      1 C         140.6671  144.2272  160.7545 C.3     1  UNL1        0.0497
      2 C         141.1956  143.4924  161.9506 C.ar    1  UNL1        0.0347
      3 C         142.5965  142.9859  162.1261 C.ar    1  UNL1        0.0070
      4 C         142.6826  142.3156  163.4652 C.ar    1  UNL1        0.0154
      5 C         141.3350  142.4078  164.1173 C.ar    1  UNL1        0.0593
      6 N         140.4159  143.1351  163.1812 N.ar    1  UNL1       -0.3328
      7 C         140.9704  141.8675  165.4683 C.ar    1  UNL1        0.0158
      8 C         140.4574  140.4643  165.6015 C.ar    1  UNL1        0.0011
      9 C         140.0928  139.9240  166.9524 C.ar    1  UNL1       -0.0042
     10 C         140.2412  140.7870  168.1703 C.ar    1  UNL1       -0.0225
     11 C         140.7542  142.1902  168.0372 C.ar    1  UNL1       -0.0042
     12 C         141.1188  142.7305  166.6862 C.ar    1  UNL1        0.0011
     13 C         139.8766  140.2467  169.5212 C.3     1  UNL1        0.0224
     14 C         138.4378  140.1843  169.9407 C.3     1  UNL1        0.0047
     15 C         140.9508  139.7688  170.4528 C.3     1  UNL1        0.0047
     16 C         138.9708  143.4499  163.4317 C.3     1  UNL1        0.0853
     17 C         137.7017  143.2075  164.1936 C.3     1  UNL1        0.0245
     18 C         137.7372  144.2376  163.1038 C.3     1  UNL1        0.0245
     19 C         143.7149  143.1253  161.1363 C.3     1  UNL1        0.1004
     20 N         143.8985  142.0946  160.0620 N.3     1  UNL1       -0.2646
     21 C         143.4752  140.6760  160.3035 C.3     1  UNL1        0.1049
     22 C         143.6589  139.6454  159.2292 C.3     1  UNL1        0.1595
     23 O         144.2658  140.0334  157.9135 O.3     1  UNL1       -0.3508
     24 C         144.6890  141.4520  157.6720 C.3     1  UNL1        0.1595
     25 C         144.5054  142.4826  158.7463 C.3     1  UNL1        0.1049
@<TRIPOS>BOND
     1     1     2    1
     2     2     3   ar
     3     3    19    1
     4    19    20    1
     5    20    21    1
     6    21    22    1
     7    22    23    1
     8    23    24    1
     9    24    25    1
    10     3     4   ar
    11     4     5   ar
    12     5     7    1
    13     7     8   ar
    14     8     9   ar
    15     9    10   ar
    16    10    13    1
    17    13    14    1
    18    13    15    1
    19    10    11   ar
    20    11    12   ar
    21     5     6   ar
    22     6    16    1
    23    16    17    1
    24    17    18    1
    25     6     2   ar
    26    18    16    1
    27    25    20    1
    28    12     7   ar
@<TRIPOS>MOLECULE
*****
 25 28 0 0 0
SMALL
GASTEIGER

@<TRIPOS>ATOM
      1 C         140.9513  143.9502  160.3888 C.3     1  UNL1        0.0497
      2 C         140.6165  143.3217  161.7090 C.ar    1  UNL1        0.0347
      3 C         139.4082  142.4840  162.0055 C.ar    1  UNL1        0.0070
      4 C         139.4762  142.0652  163.4443 C.ar    1  UNL1        0.0154
      5 C         140.7266  142.6441  164.0370 C.ar    1  UNL1        0.0593
      6 N         141.4314  143.4207  162.9644 N.ar    1  UNL1       -0.3328
      7 C         141.1908  142.4760  165.4534 C.ar    1  UNL1        0.0158
      8 C         140.2718  142.8157  166.5891 C.ar    1  UNL1        0.0011
      9 C         140.7360  142.6476  168.0055 C.ar    1  UNL1       -0.0042
     10 C         142.1191  142.1397  168.2862 C.ar    1  UNL1       -0.0225
     11 C         143.0382  141.7999  167.1505 C.ar    1  UNL1       -0.0042
     12 C         142.5740  141.9681  165.7341 C.ar    1  UNL1        0.0011
     13 C         142.5833  141.9716  169.7026 C.3     1  UNL1        0.0224
     14 C         142.8891  143.1779  170.5398 C.3     1  UNL1        0.0047
     15 C         142.7416  140.5970  170.2818 C.3     1  UNL1        0.0047
     16 C         142.7241  144.1656  163.1201 C.3     1  UNL1        0.0853
     17 C         144.1251  144.4455  162.6633 C.3     1  UNL1        0.0245
     18 C         143.5620  145.1756  163.8465 C.3     1  UNL1        0.0245
     19 C         138.3224  142.1276  161.0339 C.3     1  UNL1        0.1004
     20 N         138.5740  141.0978  159.9726 N.3     1  UNL1       -0.2646
     21 C         138.2550  141.4044  158.5394 C.3     1  UNL1        0.1049
     22 C         138.5066  140.3746  157.4782 C.3     1  UNL1        0.1595
     23 O         139.0772  139.0382  157.8502 O.3     1  UNL1       -0.3508
     24 C         139.3962  138.7316  159.2834 C.3     1  UNL1        0.1595
     25 C         139.1446  139.7613  160.3446 C.3     1  UNL1        0.1049
@<TRIPOS>BOND
     1     1     2    1
     2     2     3   ar
     3     3    19    1
     4    19    20    1
     5    20    21    1
     6    21    22    1
     7    22    23    1
     8    23    24    1
     9    24    25    1
    10     3     4   ar
    11     4     5   ar
    12     5     7    1
    13     7     8   ar
    14     8     9   ar
    15     9    10   ar
    16    10    13    1
    17    13    14    1
    18    13    15    1
    19    10    11   ar
    20    11    12   ar
    21     5     6   ar
    22     6    16    1
    23    16    17    1
    24    17    18    1
    25     6     2   ar
    26    18    16    1
    27    25    20    1
    28    12     7   ar
