@<TRIPOS>MOLECULE
*****
 33 36 0 0 0
SMALL
GASTEIGER

@<TRIPOS>ATOM
      1 C         139.5975  146.2333  161.5423 C.3     1  UNL1        0.0493
      2 C         139.4135  145.1563  162.5701 C.2     1  UNL1        0.0588
      3 N         139.7760  145.2524  164.0224 N.2     1  UNL1       -0.2525
      4 C         139.4212  143.9497  164.6759 C.2     1  UNL1        0.0748
      5 C         138.8394  143.0485  163.6274 C.2     1  UNL1       -0.0034
      6 C         138.3486  141.6476  163.8426 C.3     1  UNL1        0.0300
      7 C         138.8347  143.7943  162.3259 C.3     1  UNL1        0.1281
      8 C         139.6142  143.6082  166.1238 C.2     1  UNL1        0.0231
      9 C         140.8547  142.8899  166.5659 C.2     1  UNL1        0.0564
     10 C         141.9827  142.4513  165.6799 C.2     1  UNL1        0.2496
     11 O         142.0685  142.6540  164.1961 O.2     1  UNL1       -0.2698
     12 N         143.0100  141.7745  166.5382 N.am    1  UNL1       -0.2804
     13 C         142.5168  141.7949  167.9547 C.ar    1  UNL1        0.0508
     14 C         143.1086  141.2747  169.2311 C.ar    1  UNL1        0.0170
     15 C         142.3682  141.4439  170.5246 C.ar    1  UNL1        0.0309
     16 C         141.0361  142.1333  170.5417 C.ar    1  UNL1        0.1402
     17 F         140.2958  142.3025  171.8353 F       1  UNL1       -0.2042
     18 C         140.4444  142.6534  169.2653 C.ar    1  UNL1        0.0310
     19 C         141.1847  142.4842  167.9718 C.ar    1  UNL1        0.0201
     20 H         143.8589  141.3853  166.2266 H       1  UNL1        0.1552
     21 N         138.3382  143.2700  161.0111 N.am    1  UNL1       -0.2979
     22 C         139.3020  143.0321  159.8865 C.2     1  UNL1        0.2243
     23 O         140.7621  143.3184  160.0767 O.2     1  UNL1       -0.2750
     24 H         137.3799  143.0820  160.8863 H       1  UNL1        0.1500
     25 C         138.8056  142.5078  158.5718 C.3     1  UNL1        0.1023
     26 C         138.4830  141.0508  158.4189 C.3     1  UNL1        0.0818
     27 N         138.6182  140.1256  159.5917 N.3     1  UNL1       -0.2699
     28 C         139.9517  139.5235  159.9222 C.3     1  UNL1        0.0897
     29 C         140.0869  138.5983  161.0951 C.3     1  UNL1        0.0897
     30 N         138.8887  138.2751  161.9376 N.3     1  UNL1       -0.2691
     31 C         139.0239  137.3499  163.1104 C.3     1  UNL1        0.0897
     32 C         137.5552  138.8773  161.6071 C.3     1  UNL1        0.0897
     33 C         137.4200  139.8025  160.4342 C.3     1  UNL1        0.0897
@<TRIPOS>BOND
     1     1     2    1
     2     2     3    2
     3     3     4    1
     4     4     8    1
     5     8     9    2
     6     9    10    1
     7    10    11    2
     8    10    12   am
     9    12    13    1
    10    13    14   ar
    11    14    15   ar
    12    15    16   ar
    13    16    17    1
    14    16    18   ar
    15    18    19   ar
    16     4     5    2
    17     5     6    1
    18     5     7    1
    19     7    21    1
    20    21    22   am
    21    22    23    2
    22    22    25    1
    23    25    26    1
    24    26    27    1
    25    27    28    1
    26    28    29    1
    27    29    30    1
    28    30    31    1
    29    30    32    1
    30    32    33    1
    31     7     2    1
    32    33    27    1
    33    19     9    1
    34    19    13   ar
    35    12    20    1
    36    21    24    1
@<TRIPOS>MOLECULE
*****
 33 36 0 0 0
SMALL
GASTEIGER

@<TRIPOS>ATOM
      1 C         144.0978  137.9885  161.7120 C.3     1  UNL1        0.0493
      2 C         143.4969  139.0385  162.5987 C.2     1  UNL1        0.0588
      3 N         143.9724  139.4103  163.9719 N.2     1  UNL1       -0.2525
      4 C         143.0845  140.5027  164.4899 C.2     1  UNL1        0.0748
      5 C         142.0602  140.8059  163.4368 C.2     1  UNL1       -0.0034
      6 C         140.9721  141.8336  163.5353 C.3     1  UNL1        0.0300
      7 C         142.3151  139.9010  162.2680 C.3     1  UNL1        0.1281
      8 C         143.2005  141.1740  165.8264 C.2     1  UNL1        0.0231
      9 C         142.2739  140.7896  166.9416 C.2     1  UNL1        0.0564
     10 C         141.1881  139.7572  166.8696 C.2     1  UNL1        0.2496
     11 O         140.8383  138.9278  165.6697 O.2     1  UNL1       -0.2698
     12 N         140.5136  139.6998  168.2081 N.am    1  UNL1       -0.2804
     13 C         141.1825  140.6968  169.1074 C.ar    1  UNL1        0.0508
     14 C         140.9415  141.0783  170.5379 C.ar    1  UNL1        0.0170
     15 C         141.7884  142.1333  171.1856 C.ar    1  UNL1        0.0309
     16 C         142.8763  142.8069  170.4028 C.ar    1  UNL1        0.1402
     17 F         143.7232  143.8620  171.0506 F       1  UNL1       -0.2042
     18 C         143.1173  142.4254  168.9723 C.ar    1  UNL1        0.0310
     19 C         142.2704  141.3703  168.3246 C.ar    1  UNL1        0.0201
     20 H         139.7636  139.1111  168.4534 H       1  UNL1        0.1552
     21 N         141.5267  139.8649  160.9925 N.am    1  UNL1       -0.2979
     22 C         140.5857  138.7278  160.7244 C.2     1  UNL1        0.2243
     23 O         140.4333  137.6269  161.7317 O.2     1  UNL1       -0.2750
     24 H         141.6267  140.5874  160.3313 H       1  UNL1        0.1500
     25 C         139.7973  138.6917  159.4488 C.3     1  UNL1        0.1023
     26 C         138.6614  139.6493  159.2419 C.3     1  UNL1        0.0818
     27 N         138.4245  140.7560  160.2264 N.3     1  UNL1       -0.2699
     28 C         137.6643  140.4850  161.4908 C.3     1  UNL1        0.0897
     29 C         137.4275  141.5917  162.4753 C.3     1  UNL1        0.0897
     30 N         137.9507  142.9693  162.1954 N.3     1  UNL1       -0.2691
     31 C         137.7139  144.0759  163.1799 C.3     1  UNL1        0.0897
     32 C         138.7109  143.2402  160.9310 C.3     1  UNL1        0.0897
     33 C         138.9478  142.1336  159.9465 C.3     1  UNL1        0.0897
@<TRIPOS>BOND
     1     1     2    1
     2     2     3    2
     3     3     4    1
     4     4     8    1
     5     8     9    2
     6     9    10    1
     7    10    11    2
     8    10    12   am
     9    12    13    1
    10    13    14   ar
    11    14    15   ar
    12    15    16   ar
    13    16    17    1
    14    16    18   ar
    15    18    19   ar
    16     4     5    2
    17     5     6    1
    18     5     7    1
    19     7    21    1
    20    21    22   am
    21    22    23    2
    22    22    25    1
    23    25    26    1
    24    26    27    1
    25    27    28    1
    26    28    29    1
    27    29    30    1
    28    30    31    1
    29    30    32    1
    30    32    33    1
    31     7     2    1
    32    33    27    1
    33    19     9    1
    34    19    13   ar
    35    12    20    1
    36    21    24    1
@<TRIPOS>MOLECULE
*****
 33 36 0 0 0
SMALL
GASTEIGER

@<TRIPOS>ATOM
      1 C         137.8140  138.2239  161.8697 C.3     1  UNL1        0.0493
      2 C         138.4288  139.2419  162.7839 C.2     1  UNL1        0.0588
      3 N         138.4241  139.1974  164.2832 N.2     1  UNL1       -0.2525
      4 C         139.1486  140.4111  164.7852 C.2     1  UNL1        0.0748
      5 C         139.6010  141.2057  163.5961 C.2     1  UNL1       -0.0034
      6 C         140.3644  142.4962  163.6368 C.3     1  UNL1        0.0300
      7 C         139.1561  140.4831  162.3592 C.3     1  UNL1        0.1281
      8 C         139.3801  140.7676  166.2238 C.2     1  UNL1        0.0231
      9 C         140.6085  140.2756  166.9301 C.2     1  UNL1        0.0564
     10 C         141.6882  139.4236  166.3313 C.2     1  UNL1        0.2496
     11 O         141.7289  138.9140  164.9211 O.2     1  UNL1       -0.2698
     12 N         142.7199  139.1707  167.3904 N.am    1  UNL1       -0.2804
     13 C         142.2779  139.8664  168.6436 C.ar    1  UNL1        0.0508
     14 C         142.8951  139.9663  170.0071 C.ar    1  UNL1        0.0170
     15 C         142.2073  140.7490  171.0861 C.ar    1  UNL1        0.0309
     16 C         140.9024  141.4318  170.8016 C.ar    1  UNL1        0.1402
     17 F         140.2146  142.2146  171.8807 F       1  UNL1       -0.2042
     18 C         140.2852  141.3320  169.4382 C.ar    1  UNL1        0.0310
     19 C         140.9730  140.5492  168.3592 C.ar    1  UNL1        0.0201
     20 H         143.5427  138.6412  167.2819 H       1  UNL1        0.1552
     21 N         139.3964  140.9242  160.9458 N.am    1  UNL1       -0.2979
     22 C         138.6128  142.0682  160.3737 C.2     1  UNL1        0.2243
     23 O         137.5889  142.7710  161.2150 O.2     1  UNL1       -0.2750
     24 H         140.0684  140.4629  160.3937 H       1  UNL1        0.1500
     25 C         138.8531  142.5093  158.9604 C.3     1  UNL1        0.1023
     26 C         140.0377  143.3698  158.6344 C.3     1  UNL1        0.0818
     27 N         141.0585  143.6722  159.6910 N.3     1  UNL1       -0.2699
     28 C         142.3189  142.8628  159.7697 C.3     1  UNL1        0.0897
     29 C         143.3397  143.1652  160.8263 C.3     1  UNL1        0.0897
     30 N         143.1002  144.2770  161.8043 N.3     1  UNL1       -0.2691
     31 C         144.1210  144.5794  162.8609 C.3     1  UNL1        0.0897
     32 C         141.8398  145.0864  161.7256 C.3     1  UNL1        0.0897
     33 C         140.8190  144.7840  160.6690 C.3     1  UNL1        0.0897
@<TRIPOS>BOND
     1     1     2    1
     2     2     3    2
     3     3     4    1
     4     4     8    1
     5     8     9    2
     6     9    10    1
     7    10    11    2
     8    10    12   am
     9    12    13    1
    10    13    14   ar
    11    14    15   ar
    12    15    16   ar
    13    16    17    1
    14    16    18   ar
    15    18    19   ar
    16     4     5    2
    17     5     6    1
    18     5     7    1
    19     7    21    1
    20    21    22   am
    21    22    23    2
    22    22    25    1
    23    25    26    1
    24    26    27    1
    25    27    28    1
    26    28    29    1
    27    29    30    1
    28    30    31    1
    29    30    32    1
    30    32    33    1
    31     7     2    1
    32    33    27    1
    33    19     9    1
    34    19    13   ar
    35    12    20    1
    36    21    24    1
@<TRIPOS>MOLECULE
*****
 33 36 0 0 0
SMALL
GASTEIGER

@<TRIPOS>ATOM
      1 C         138.4305  139.2972  160.6920 C.3     1  UNL1        0.0493
      2 C         139.3598  139.6356  161.8198 C.2     1  UNL1        0.0588
      3 N         139.0607  140.5623  162.9607 N.2     1  UNL1       -0.2525
      4 C         140.2674  140.6062  163.8507 C.2     1  UNL1        0.0748
      5 C         141.3122  139.7067  163.2597 C.2     1  UNL1       -0.0034
      6 C         142.6781  139.4518  163.8247 C.3     1  UNL1        0.0300
      7 C         140.7512  139.1068  162.0045 C.3     1  UNL1        0.1281
      8 C         140.4051  141.4088  165.1105 C.2     1  UNL1        0.0231
      9 C         139.9361  140.8403  166.4170 C.2     1  UNL1        0.0564
     10 C         139.3127  139.4909  166.6183 C.2     1  UNL1        0.2496
     11 O         139.0489  138.4730  165.5485 O.2     1  UNL1       -0.2698
     12 N         138.9995  139.3380  168.0772 N.am    1  UNL1       -0.2804
     13 C         139.4292  140.5929  168.7776 C.ar    1  UNL1        0.0508
     14 C         139.3682  141.0102  170.2171 C.ar    1  UNL1        0.0170
     15 C         139.8861  142.3558  170.6304 C.ar    1  UNL1        0.0309
     16 C         140.4649  143.2843  169.6043 C.ar    1  UNL1        0.1402
     17 F         140.9828  144.6300  170.0178 F       1  UNL1       -0.2042
     18 C         140.5259  142.8671  168.1648 C.ar    1  UNL1        0.0310
     19 C         140.0081  141.5214  167.7515 C.ar    1  UNL1        0.0201
     20 H         138.5847  138.5520  168.5007 H       1  UNL1        0.1552
     21 N         141.4577  138.1468  161.0940 N.am    1  UNL1       -0.2979
     22 C         142.1281  138.6487  159.8495 C.2     1  UNL1        0.2243
     23 O         142.0921  140.1106  159.5155 O.2     1  UNL1       -0.2750
     24 H         141.4815  137.1873  161.3131 H       1  UNL1        0.1500
     25 C         142.8346  137.6886  158.9389 C.3     1  UNL1        0.1023
     26 C         142.4629  137.6200  157.4873 C.3     1  UNL1        0.0818
     27 N         142.2813  136.2880  156.8218 N.3     1  UNL1       -0.2699
     28 C         141.2680  136.1283  155.7274 C.3     1  UNL1        0.0897
     29 C         141.0864  134.7964  155.0619 C.3     1  UNL1        0.0897
     30 N         141.9181  133.6241  155.4907 N.3     1  UNL1       -0.2691
     31 C         141.7365  132.2921  154.8252 C.3     1  UNL1        0.0897
     32 C         142.9314  133.7837  156.5851 C.3     1  UNL1        0.0897
     33 C         143.1130  135.1157  157.2507 C.3     1  UNL1        0.0897
@<TRIPOS>BOND
     1     1     2    1
     2     2     3    2
     3     3     4    1
     4     4     8    1
     5     8     9    2
     6     9    10    1
     7    10    11    2
     8    10    12   am
     9    12    13    1
    10    13    14   ar
    11    14    15   ar
    12    15    16   ar
    13    16    17    1
    14    16    18   ar
    15    18    19   ar
    16     4     5    2
    17     5     6    1
    18     5     7    1
    19     7    21    1
    20    21    22   am
    21    22    23    2
    22    22    25    1
    23    25    26    1
    24    26    27    1
    25    27    28    1
    26    28    29    1
    27    29    30    1
    28    30    31    1
    29    30    32    1
    30    32    33    1
    31     7     2    1
    32    33    27    1
    33    19     9    1
    34    19    13   ar
    35    12    20    1
    36    21    24    1
@<TRIPOS>MOLECULE
*****
 33 36 0 0 0
SMALL
GASTEIGER

@<TRIPOS>ATOM
      1 C         144.0465  138.0989  161.2401 C.3     1  UNL1        0.0493
      2 C         143.5661  139.0655  162.2817 C.2     1  UNL1        0.0588
      3 N         143.5630  138.8350  163.7638 N.2     1  UNL1       -0.2525
      4 C         142.9994  140.0593  164.4221 C.2     1  UNL1        0.0748
      5 C         142.6542  141.0464  163.3468 C.2     1  UNL1       -0.0034
      6 C         142.0626  142.4086  163.5574 C.3     1  UNL1        0.0300
      7 C         143.0044  140.4322  162.0239 C.3     1  UNL1        0.1281
      8 C         142.8136  140.2610  165.8969 C.2     1  UNL1        0.0231
      9 C         141.4562  140.0906  166.5121 C.2     1  UNL1        0.0564
     10 C         140.1979  139.7223  165.7834 C.2     1  UNL1        0.2496
     11 O         140.0760  139.4598  164.3116 O.2     1  UNL1       -0.2698
     12 N         139.0829  139.6626  166.7850 N.am    1  UNL1       -0.2804
     13 C         139.6521  139.9939  168.1327 C.ar    1  UNL1        0.0508
     14 C         139.0242  140.0890  169.4916 C.ar    1  UNL1        0.0170
     15 C         139.8632  140.4485  170.6819 C.ar    1  UNL1        0.0309
     16 C         141.3300  140.7130  170.5132 C.ar    1  UNL1        0.1402
     17 F         142.1690  141.0726  171.7036 F       1  UNL1       -0.2042
     18 C         141.9579  140.6180  169.1543 C.ar    1  UNL1        0.0310
     19 C         141.1189  140.2585  167.9640 C.ar    1  UNL1        0.0201
     20 H         138.1426  139.4442  166.5917 H       1  UNL1        0.1552
     21 N         142.8246  141.0723  160.6794 N.am    1  UNL1       -0.2979
     22 C         143.7010  142.2195  160.2716 C.2     1  UNL1        0.2243
     23 O         144.7571  142.7264  161.2084 O.2     1  UNL1       -0.2750
     24 H         142.1314  140.7396  160.0645 H       1  UNL1        0.1500
     25 C         143.5211  142.8596  158.9271 C.3     1  UNL1        0.1023
     26 C         142.2195  143.5185  158.5782 C.3     1  UNL1        0.0818
     27 N         141.1844  143.7435  159.6402 N.3     1  UNL1       -0.2699
     28 C         141.3140  144.9058  160.5795 C.3     1  UNL1        0.0897
     29 C         140.2789  145.1309  161.6415 C.3     1  UNL1        0.0897
     30 N         139.1141  144.1937  161.7642 N.3     1  UNL1       -0.2691
     31 C         138.0790  144.4188  162.8262 C.3     1  UNL1        0.0897
     32 C         138.9846  143.0314  160.8249 C.3     1  UNL1        0.0897
     33 C         140.0197  142.8064  159.7629 C.3     1  UNL1        0.0897
@<TRIPOS>BOND
     1     1     2    1
     2     2     3    2
     3     3     4    1
     4     4     8    1
     5     8     9    2
     6     9    10    1
     7    10    11    2
     8    10    12   am
     9    12    13    1
    10    13    14   ar
    11    14    15   ar
    12    15    16   ar
    13    16    17    1
    14    16    18   ar
    15    18    19   ar
    16     4     5    2
    17     5     6    1
    18     5     7    1
    19     7    21    1
    20    21    22   am
    21    22    23    2
    22    22    25    1
    23    25    26    1
    24    26    27    1
    25    27    28    1
    26    28    29    1
    27    29    30    1
    28    30    31    1
    29    30    32    1
    30    32    33    1
    31     7     2    1
    32    33    27    1
    33    19     9    1
    34    19    13   ar
    35    12    20    1
    36    21    24    1
@<TRIPOS>MOLECULE
*****
 33 36 0 0 0
SMALL
GASTEIGER

@<TRIPOS>ATOM
      1 C         139.6682  146.1375  161.6598 C.3     1  UNL1        0.0493
      2 C         139.4342  145.0780  162.6954 C.2     1  UNL1        0.0588
      3 N         139.8366  145.1515  164.1385 N.2     1  UNL1       -0.2525
      4 C         139.4078  143.8778  164.8047 C.2     1  UNL1        0.0748
      5 C         138.7403  143.0171  163.7733 C.2     1  UNL1       -0.0034
      6 C         138.1587  141.6541  164.0049 C.3     1  UNL1        0.0300
      7 C         138.7567  143.7589  162.4696 C.3     1  UNL1        0.1281
      8 C         139.6108  143.5264  166.2489 C.2     1  UNL1        0.0231
      9 C         140.8222  142.7474  166.6681 C.2     1  UNL1        0.0564
     10 C         141.9104  142.2540  165.7613 C.2     1  UNL1        0.2496
     11 O         141.9783  142.4528  164.2761 O.2     1  UNL1       -0.2698
     12 N         142.9188  141.5267  166.6005 N.am    1  UNL1       -0.2804
     13 C         142.4538  141.5708  168.0260 C.ar    1  UNL1        0.0508
     14 C         143.0428  141.0214  169.2913 C.ar    1  UNL1        0.0170
     15 C         142.3361  141.2264  170.5984 C.ar    1  UNL1        0.0309
     16 C         141.0403  141.9809  170.6401 C.ar    1  UNL1        0.1402
     17 F         140.3336  142.1859  171.9473 F       1  UNL1       -0.2042
     18 C         140.4513  142.5303  169.3748 C.ar    1  UNL1        0.0310
     19 C         141.1580  142.3252  168.0677 C.ar    1  UNL1        0.0201
     20 H         143.7414  141.0961  166.2733 H       1  UNL1        0.1552
     21 N         138.1942  143.2679  161.1687 N.am    1  UNL1       -0.2979
     22 C         138.9567  142.2669  160.3521 C.2     1  UNL1        0.2243
     23 O         140.2817  141.7571  160.8365 O.2     1  UNL1       -0.2750
     24 H         137.3246  143.6025  160.8508 H       1  UNL1        0.1500
     25 C         138.3943  141.7758  159.0512 C.3     1  UNL1        0.1023
     26 C         138.2798  142.7101  157.8833 C.3     1  UNL1        0.0818
     27 N         137.3566  142.3815  156.7476 N.3     1  UNL1       -0.2699
     28 C         136.5690  141.1050  156.7666 C.3     1  UNL1        0.0897
     29 C         135.6458  140.7764  155.6310 C.3     1  UNL1        0.0897
     30 N         135.5101  141.7241  154.4763 N.3     1  UNL1       -0.2691
     31 C         134.5869  141.3955  153.3407 C.3     1  UNL1        0.0897
     32 C         136.2977  143.0006  154.4574 C.3     1  UNL1        0.0897
     33 C         137.2209  143.3292  155.5930 C.3     1  UNL1        0.0897
@<TRIPOS>BOND
     1     1     2    1
     2     2     3    2
     3     3     4    1
     4     4     8    1
     5     8     9    2
     6     9    10    1
     7    10    11    2
     8    10    12   am
     9    12    13    1
    10    13    14   ar
    11    14    15   ar
    12    15    16   ar
    13    16    17    1
    14    16    18   ar
    15    18    19   ar
    16     4     5    2
    17     5     6    1
    18     5     7    1
    19     7    21    1
    20    21    22   am
    21    22    23    2
    22    22    25    1
    23    25    26    1
    24    26    27    1
    25    27    28    1
    26    28    29    1
    27    29    30    1
    28    30    31    1
    29    30    32    1
    30    32    33    1
    31     7     2    1
    32    33    27    1
    33    19     9    1
    34    19    13   ar
    35    12    20    1
    36    21    24    1
@<TRIPOS>MOLECULE
*****
 33 36 0 0 0
SMALL
GASTEIGER

@<TRIPOS>ATOM
      1 C         137.4136  139.7367  160.5447 C.3     1  UNL1        0.0493
      2 C         138.2968  139.4168  161.7142 C.2     1  UNL1        0.0588
      3 N         138.0156  139.7517  163.1490 N.2     1  UNL1       -0.2525
      4 C         139.1612  139.2477  163.9757 C.2     1  UNL1        0.0748
      5 C         140.1505  138.6013  163.0518 C.2     1  UNL1       -0.0034
      6 C         141.4464  137.9626  163.4549 C.3     1  UNL1        0.0300
      7 C         139.6162  138.7059  161.6541 C.3     1  UNL1        0.1281
      8 C         139.2943  139.3688  165.4649 C.2     1  UNL1        0.0231
      9 C         139.7669  140.6558  166.0735 C.2     1  UNL1        0.0564
     10 C         140.1413  141.9002  165.3243 C.2     1  UNL1        0.2496
     11 O         140.1087  142.0761  163.8350 O.2     1  UNL1       -0.2698
     12 N         140.5539  142.9377  166.3259 N.am    1  UNL1       -0.2804
     13 C         140.4346  142.3345  167.6941 C.ar    1  UNL1        0.0508
     14 C         140.7061  142.8873  169.0618 C.ar    1  UNL1        0.0170
     15 C         140.4911  142.0297  170.2736 C.ar    1  UNL1        0.0309
     16 C         140.0047  140.6194  170.1176 C.ar    1  UNL1        0.1402
     17 F         139.7898  139.7618  171.3294 F       1  UNL1       -0.2042
     18 C         139.7333  140.0666  168.7498 C.ar    1  UNL1        0.0310
     19 C         139.9482  140.9242  167.5381 C.ar    1  UNL1        0.0201
     20 H         140.8509  143.8537  166.1212 H       1  UNL1        0.1552
     21 N         140.2841  138.1900  160.4140 N.am    1  UNL1       -0.2979
     22 C         141.3249  139.0197  159.7223 C.2     1  UNL1        0.2243
     23 O         141.6978  140.3651  160.2706 O.2     1  UNL1       -0.2750
     24 H         140.0394  137.3069  160.0541 H       1  UNL1        0.1500
     25 C         141.9928  138.5038  158.4822 C.3     1  UNL1        0.1023
     26 C         141.1675  137.9267  157.3706 C.3     1  UNL1        0.0818
     27 N         141.6190  136.6789  156.6711 N.3     1  UNL1       -0.2699
     28 C         142.8700  135.9808  157.1157 C.3     1  UNL1        0.0897
     29 C         143.3215  134.7330  156.4163 C.3     1  UNL1        0.0897
     30 N         142.5220  134.1833  155.2723 N.3     1  UNL1       -0.2691
     31 C         142.9735  132.9355  154.5729 C.3     1  UNL1        0.0897
     32 C         141.2710  134.8814  154.8278 C.3     1  UNL1        0.0897
     33 C         140.8195  136.1292  155.5272 C.3     1  UNL1        0.0897
@<TRIPOS>BOND
     1     1     2    1
     2     2     3    2
     3     3     4    1
     4     4     8    1
     5     8     9    2
     6     9    10    1
     7    10    11    2
     8    10    12   am
     9    12    13    1
    10    13    14   ar
    11    14    15   ar
    12    15    16   ar
    13    16    17    1
    14    16    18   ar
    15    18    19   ar
    16     4     5    2
    17     5     6    1
    18     5     7    1
    19     7    21    1
    20    21    22   am
    21    22    23    2
    22    22    25    1
    23    25    26    1
    24    26    27    1
    25    27    28    1
    26    28    29    1
    27    29    30    1
    28    30    31    1
    29    30    32    1
    30    32    33    1
    31     7     2    1
    32    33    27    1
    33    19     9    1
    34    19    13   ar
    35    12    20    1
    36    21    24    1
@<TRIPOS>MOLECULE
*****
 33 36 0 0 0
SMALL
GASTEIGER

@<TRIPOS>ATOM
      1 C         143.7841  137.9647  161.4925 C.3     1  UNL1        0.0493
      2 C         142.8552  138.5921  162.4893 C.2     1  UNL1        0.0588
      3 N         142.9903  138.5286  163.9818 N.2     1  UNL1       -0.2525
      4 C         141.8468  139.2904  164.5835 C.2     1  UNL1        0.0748
      5 C         141.0051  139.8247  163.4629 C.2     1  UNL1       -0.0034
      6 C         139.7589  140.6464  163.6107 C.3     1  UNL1        0.0300
      7 C         141.6283  139.3932  162.1685 C.3     1  UNL1        0.1281
      8 C         141.5902  139.4839  166.0488 C.2     1  UNL1        0.0231
      9 C         142.2028  140.6476  166.7703 C.2     1  UNL1        0.0564
     10 C         143.0888  141.6943  166.1626 C.2     1  UNL1        0.2496
     11 O         143.5177  141.7613  164.7268 O.2     1  UNL1       -0.2698
     12 N         143.4705  142.6625  167.2429 N.am    1  UNL1       -0.2804
     13 C         142.8205  142.2140  168.5182 C.ar    1  UNL1        0.0508
     14 C         142.8408  142.7787  169.9076 C.ar    1  UNL1        0.0170
     15 C         142.0776  142.0981  171.0050 C.ar    1  UNL1        0.0309
     16 C         141.2941  140.8528  170.7129 C.ar    1  UNL1        0.1402
     17 F         140.5308  140.1722  171.8103 F       1  UNL1       -0.2042
     18 C         141.2738  140.2881  169.3234 C.ar    1  UNL1        0.0310
     19 C         142.0370  140.9687  168.2261 C.ar    1  UNL1        0.0201
     20 H         144.0466  143.4534  167.1340 H       1  UNL1        0.1552
     21 N         141.1148  139.7075  160.7947 N.am    1  UNL1       -0.2979
     22 C         139.9313  138.9652  160.2484 C.2     1  UNL1        0.2243
     23 O         139.2614  137.9086  161.0759 O.2     1  UNL1       -0.2750
     24 H         141.5545  140.4010  160.2515 H       1  UNL1        0.1500
     25 C         139.4178  139.2795  158.8746 C.3     1  UNL1        0.1023
     26 C         138.6018  140.5168  158.6438 C.3     1  UNL1        0.0818
     27 N         138.8901  141.7625  159.4281 N.3     1  UNL1       -0.2699
     28 C         138.1625  142.0249  160.7133 C.3     1  UNL1        0.0897
     29 C         138.4509  143.2706  161.4975 C.3     1  UNL1        0.0897
     30 N         139.4668  144.2539  160.9967 N.3     1  UNL1       -0.2691
     31 C         139.7551  145.4996  161.7810 C.3     1  UNL1        0.0897
     32 C         140.1944  143.9915  159.7115 C.3     1  UNL1        0.0897
     33 C         139.9060  142.7459  158.9272 C.3     1  UNL1        0.0897
@<TRIPOS>BOND
     1     1     2    1
     2     2     3    2
     3     3     4    1
     4     4     8    1
     5     8     9    2
     6     9    10    1
     7    10    11    2
     8    10    12   am
     9    12    13    1
    10    13    14   ar
    11    14    15   ar
    12    15    16   ar
    13    16    17    1
    14    16    18   ar
    15    18    19   ar
    16     4     5    2
    17     5     6    1
    18     5     7    1
    19     7    21    1
    20    21    22   am
    21    22    23    2
    22    22    25    1
    23    25    26    1
    24    26    27    1
    25    27    28    1
    26    28    29    1
    27    29    30    1
    28    30    31    1
    29    30    32    1
    30    32    33    1
    31     7     2    1
    32    33    27    1
    33    19     9    1
    34    19    13   ar
    35    12    20    1
    36    21    24    1
@<TRIPOS>MOLECULE
*****
 33 36 0 0 0
SMALL
GASTEIGER

@<TRIPOS>ATOM
      1 C         139.2938  141.0947  159.9883 C.3     1  UNL1        0.0493
      2 C         139.4647  142.0192  161.1571 C.2     1  UNL1        0.0588
      3 N         139.4787  141.6195  162.6028 N.2     1  UNL1       -0.2525
      4 C         139.6743  142.8590  163.4245 C.2     1  UNL1        0.0748
      5 C         139.7811  144.0248  162.4867 C.2     1  UNL1       -0.0034
      6 C         139.9822  145.4580  162.8810 C.3     1  UNL1        0.0300
      7 C         139.6516  143.5058  161.0853 C.3     1  UNL1        0.1281
      8 C         139.7497  142.9217  164.9214 C.2     1  UNL1        0.0231
      9 C         141.0461  142.6360  165.6196 C.2     1  UNL1        0.0564
     10 C         142.3433  142.2760  164.9579 C.2     1  UNL1        0.2496
     11 O         142.5717  142.1385  163.4818 O.2     1  UNL1       -0.2698
     12 N         143.3718  142.0776  166.0315 N.am    1  UNL1       -0.2804
     13 C         142.7104  142.3150  167.3568 C.ar    1  UNL1        0.0508
     14 C         143.2313  142.2615  168.7624 C.ar    1  UNL1        0.0170
     15 C         142.3148  142.5531  169.9134 C.ar    1  UNL1        0.0309
     16 C         140.8774  142.8982  169.6588 C.ar    1  UNL1        0.1402
     17 F         139.9609  143.1898  170.8099 F       1  UNL1       -0.2042
     18 C         140.3565  142.9517  168.2532 C.ar    1  UNL1        0.0310
     19 C         141.2730  142.6601  167.1022 C.ar    1  UNL1        0.0201
     20 H         144.3154  141.8343  165.8911 H       1  UNL1        0.1552
     21 N         139.7005  144.3288  159.8322 N.am    1  UNL1       -0.2979
     22 C         141.0203  144.7913  159.2898 C.2     1  UNL1        0.2243
     23 O         142.2912  144.4309  160.0004 O.2     1  UNL1       -0.2750
     24 H         138.8664  144.5654  159.3658 H       1  UNL1        0.1500
     25 C         141.0692  145.6144  158.0367 C.3     1  UNL1        0.1023
     26 C         139.8275  145.8079  157.2176 C.3     1  UNL1        0.0818
     27 N         139.8195  146.7972  156.0901 N.3     1  UNL1       -0.2699
     28 C         140.6366  146.5381  154.8592 C.3     1  UNL1        0.0897
     29 C         140.6285  147.5273  153.7316 C.3     1  UNL1        0.0897
     30 N         139.8034  148.7757  153.8350 N.3     1  UNL1       -0.2691
     31 C         139.7953  149.7649  152.7075 C.3     1  UNL1        0.0897
     32 C         138.9863  149.0348  155.0659 C.3     1  UNL1        0.0897
     33 C         138.9943  148.0455  156.1934 C.3     1  UNL1        0.0897
@<TRIPOS>BOND
     1     1     2    1
     2     2     3    2
     3     3     4    1
     4     4     8    1
     5     8     9    2
     6     9    10    1
     7    10    11    2
     8    10    12   am
     9    12    13    1
    10    13    14   ar
    11    14    15   ar
    12    15    16   ar
    13    16    17    1
    14    16    18   ar
    15    18    19   ar
    16     4     5    2
    17     5     6    1
    18     5     7    1
    19     7    21    1
    20    21    22   am
    21    22    23    2
    22    22    25    1
    23    25    26    1
    24    26    27    1
    25    27    28    1
    26    28    29    1
    27    29    30    1
    28    30    31    1
    29    30    32    1
    30    32    33    1
    31     7     2    1
    32    33    27    1
    33    19     9    1
    34    19    13   ar
    35    12    20    1
    36    21    24    1
