@<TRIPOS>MOLECULE
*****
 39 45 0 0 0
SMALL
GASTEIGER

@<TRIPOS>ATOM
      1 C         138.4629  141.8436  164.4535 C.3     1  UNL1        0.0955
      2 C         138.0765  141.8526  163.0041 C.3     1  UNL1        0.0287
      3 C         138.0757  143.1411  162.2361 C.3     1  UNL1        0.0193
      4 C         138.4613  144.4206  162.9174 C.3     1  UNL1        0.0700
      5 C         138.8477  144.4116  164.3668 C.3     1  UNL1        0.0193
      6 C         138.8485  143.1231  165.1348 C.3     1  UNL1        0.0287
      7 C         138.4767  143.7393  163.3797 C.3     1  UNL1        0.1562
      8 O         138.4775  142.5742  164.0741 O.3     1  UNL1       -0.3571
      9 N         138.4605  145.7091  162.1495 N.3     1  UNL1       -0.2938
     10 H         138.1806  146.4409  162.8025 H       1  UNL1        0.1235
     11 C         139.7158  146.1836  161.4795 C.3     1  UNL1        0.0966
     12 C         140.8643  145.2388  161.2833 C.ar    1  UNL1        0.0074
     13 C         141.7686  144.9083  162.4335 C.ar    1  UNL1        0.0380
     14 C         142.9171  143.9636  162.2372 C.ar    1  UNL1        0.1722
     15 C         143.1613  143.3494  160.8907 C.ar    1  UNL1        0.1732
     16 C         142.2570  143.6799  159.7404 C.ar    1  UNL1        0.0512
     17 C         141.1085  144.6246  159.9368 C.ar    1  UNL1        0.0582
     18 CL        140.2043  144.9551  158.7864 Cl      1  UNL1       -0.0824
     19 O         144.3097  142.4046  160.6944 O.3     1  UNL1       -0.4683
     20 C         145.2140  142.0742  161.8447 C.3     1  UNL1        0.2526
     21 C         144.9697  142.6884  163.1911 C.3     1  UNL1        0.2526
     22 O         143.8213  143.6331  163.3874 O.3     1  UNL1       -0.4684
     23 C         138.4637  140.5551  165.2214 C.3     1  UNL1        0.0604
     24 O         138.8919  141.0275  170.3083 O.2     1  UNL1       -0.2670
     25 C         140.0896  140.3798  169.6790 C.ar    1  UNL1        0.2611
     26 C         141.2447  139.9487  170.5333 C.ar    1  UNL1        0.0623
     27 C         142.4423  139.3009  169.9039 C.ar    1  UNL1        0.0254
     28 C         142.4849  139.0842  168.4203 C.ar    1  UNL1        0.0972
     29 N         143.5362  138.4711  167.5320 N.ar    1  UNL1       -0.2400
     30 C         143.4365  138.3207  166.0429 C.ar    1  UNL1        0.1282
     31 C         142.2129  138.8016  165.3208 C.ar    1  UNL1        0.1588
     32 F         142.1132  138.6512  163.8317 F       1  UNL1       -0.2027
     33 C         141.0889  139.4329  166.0878 C.ar    1  UNL1        0.0500
     34 C         141.3298  139.5153  167.5660 C.ar    1  UNL1        0.0806
     35 N         140.1321  140.1631  168.1953 N.ar    1  UNL1       -0.2915
     36 C         139.1511  140.4810  167.1060 C.3     1  UNL1        0.1402
     37 C         139.7425  140.0297  165.8035 C.3     1  UNL1        0.1335
     38 O         140.0665  139.6882  164.3792 O.3     1  UNL1       -0.3806
     39 H         139.3317  139.9586  163.8067 H       1  UNL1        0.2108
@<TRIPOS>BOND
     1    24    25    2
     2    25    26   ar
     3    26    27   ar
     4    27    28   ar
     5    28    29   ar
     6    29    30   ar
     7    30    31   ar
     8    31    32    1
     9    31    33   ar
    10    33    34   ar
    11    34    35   ar
    12    35    36    1
    13    36    37    1
    14    37    38    1
    15    37    23    1
    16    23     1    1
    17     1     2    1
    18     2     3    1
    19     3     4    1
    20     4     9    1
    21     9    11    1
    22    11    12    1
    23    12    13   ar
    24    13    14   ar
    25    14    15   ar
    26    15    16   ar
    27    16    17   ar
    28    17    18    1
    29    15    19    1
    30    19    20    1
    31    20    21    1
    32    21    22    1
    33     4     5    1
    34     5     6    1
    35     4     7    1
    36     7     8    1
    37    35    25   ar
    38     6     1    1
    39    34    28   ar
    40     8     1    1
    41    37    33    1
    42    17    12   ar
    43    22    14    1
    44    38    39    1
    45     9    10    1
@<TRIPOS>MOLECULE
*****
 39 45 0 0 0
SMALL
GASTEIGER

@<TRIPOS>ATOM
      1 C         138.4981  141.7101  164.4868 C.3     1  UNL1        0.0955
      2 C         138.0249  141.7184  163.0633 C.3     1  UNL1        0.0287
      3 C         138.0131  143.0001  162.2843 C.3     1  UNL1        0.0193
      4 C         138.4745  144.2737  162.9286 C.3     1  UNL1        0.0700
      5 C         138.9476  144.2655  164.3520 C.3     1  UNL1        0.0193
      6 C         138.9594  142.9837  165.1311 C.3     1  UNL1        0.0287
      7 C         138.4991  143.5959  163.3957 C.3     1  UNL1        0.1562
      8 O         138.5097  142.4370  164.1001 O.3     1  UNL1       -0.3571
      9 N         138.4627  145.5555  162.1495 N.3     1  UNL1       -0.2938
     10 H         138.0724  146.2700  162.7640 H       1  UNL1        0.1235
     11 C         139.7429  146.1102  161.5989 C.3     1  UNL1        0.0966
     12 C         140.8503  145.1821  161.1957 C.ar    1  UNL1        0.0074
     13 C         140.8496  144.5624  159.8298 C.ar    1  UNL1        0.0380
     14 C         141.9571  143.6344  159.4267 C.ar    1  UNL1        0.1722
     15 C         143.0652  143.3262  160.3895 C.ar    1  UNL1        0.1732
     16 C         143.0658  143.9459  161.7555 C.ar    1  UNL1        0.0512
     17 C         141.9584  144.8739  162.1586 C.ar    1  UNL1        0.0582
     18 CL        141.9592  145.4937  163.5246 Cl      1  UNL1       -0.0824
     19 O         144.1726  142.3982  159.9864 O.3     1  UNL1       -0.4683
     20 C         144.1718  141.7784  158.6204 C.3     1  UNL1        0.2526
     21 C         143.0637  142.0867  157.6576 C.3     1  UNL1        0.2526
     22 O         141.9563  143.0147  158.0607 O.3     1  UNL1       -0.4684
     23 C         138.5098  140.4284  165.2658 C.3     1  UNL1        0.0604
     24 O         138.8727  140.9253  170.3554 O.2     1  UNL1       -0.2670
     25 C         140.0879  140.2951  169.7419 C.ar    1  UNL1        0.2611
     26 C         141.2401  139.8860  170.6107 C.ar    1  UNL1        0.0623
     27 C         142.4553  139.2559  169.9973 C.ar    1  UNL1        0.0254
     28 C         142.5181  139.0348  168.5150 C.ar    1  UNL1        0.0972
     29 N         143.5894  138.4360  167.6408 N.ar    1  UNL1       -0.2400
     30 C         143.5090  138.2789  166.1512 C.ar    1  UNL1        0.1282
     31 C         142.2859  138.7371  165.4137 C.ar    1  UNL1        0.1588
     32 F         142.2055  138.5800  163.9241 F       1  UNL1       -0.2027
     33 C         141.1431  139.3525  166.1657 C.ar    1  UNL1        0.0500
     34 C         141.3659  139.4439  167.6462 C.ar    1  UNL1        0.0806
     35 N         140.1507  140.0741  168.2597 N.ar    1  UNL1       -0.2915
     36 C         139.1770  140.3720  167.1583 C.3     1  UNL1        0.1402
     37 C         139.7904  139.9260  165.8641 C.3     1  UNL1        0.1335
     38 O         140.1360  139.5851  164.4448 O.3     1  UNL1       -0.3806
     39 H         139.4034  139.8414  163.8631 H       1  UNL1        0.2108
@<TRIPOS>BOND
     1    24    25    2
     2    25    26   ar
     3    26    27   ar
     4    27    28   ar
     5    28    29   ar
     6    29    30   ar
     7    30    31   ar
     8    31    32    1
     9    31    33   ar
    10    33    34   ar
    11    34    35   ar
    12    35    36    1
    13    36    37    1
    14    37    38    1
    15    37    23    1
    16    23     1    1
    17     1     2    1
    18     2     3    1
    19     3     4    1
    20     4     9    1
    21     9    11    1
    22    11    12    1
    23    12    13   ar
    24    13    14   ar
    25    14    15   ar
    26    15    16   ar
    27    16    17   ar
    28    17    18    1
    29    15    19    1
    30    19    20    1
    31    20    21    1
    32    21    22    1
    33     4     5    1
    34     5     6    1
    35     4     7    1
    36     7     8    1
    37    35    25   ar
    38     6     1    1
    39    34    28   ar
    40     8     1    1
    41    37    33    1
    42    17    12   ar
    43    22    14    1
    44    38    39    1
    45     9    10    1
@<TRIPOS>MOLECULE
*****
 39 45 0 0 0
SMALL
GASTEIGER

@<TRIPOS>ATOM
      1 C         138.2374  141.7733  164.5988 C.3     1  UNL1        0.0955
      2 C         139.1386  142.7286  165.3238 C.3     1  UNL1        0.0287
      3 C         140.0221  142.2333  166.4302 C.3     1  UNL1        0.0193
      4 C         140.0044  140.7827  166.8116 C.3     1  UNL1        0.0700
      5 C         139.1033  139.8275  166.0867 C.3     1  UNL1        0.0193
      6 C         138.2198  140.3228  164.9803 C.3     1  UNL1        0.0287
      7 C         139.5025  141.0074  166.1987 C.3     1  UNL1        0.1562
      8 O         138.7036  141.4552  165.1984 O.3     1  UNL1       -0.3571
      9 N         140.8880  140.2874  167.9180 N.3     1  UNL1       -0.2938
     10 H         140.4234  139.4755  168.3247 H       1  UNL1        0.1235
     11 C         142.2998  139.8757  167.6229 C.3     1  UNL1        0.0966
     12 C         142.8444  140.0079  166.2315 C.ar    1  UNL1        0.0074
     13 C         142.7296  138.8631  165.2691 C.ar    1  UNL1        0.0380
     14 C         143.2742  138.9954  163.8778 C.ar    1  UNL1        0.1722
     15 C         143.9336  140.2725  163.4488 C.ar    1  UNL1        0.1732
     16 C         144.0484  141.4174  164.4111 C.ar    1  UNL1        0.0512
     17 C         143.5038  141.2850  165.8025 C.ar    1  UNL1        0.0582
     18 CL        143.6187  142.4300  166.7648 Cl      1  UNL1       -0.0824
     19 O         144.4782  140.4048  162.0574 O.3     1  UNL1       -0.4683
     20 C         144.3633  139.2599  161.0951 C.3     1  UNL1        0.2526
     21 C         143.7039  137.9828  161.5241 C.3     1  UNL1        0.2526
     22 O         143.1593  137.8505  162.9155 O.3     1  UNL1       -0.4684
     23 C         137.3539  142.2687  163.4925 C.3     1  UNL1        0.0604
     24 O         140.3071  146.1646  161.9487 O.2     1  UNL1       -0.2670
     25 C         140.0709  145.1481  160.8713 C.ar    1  UNL1        0.2611
     26 C         140.6788  145.3394  159.5134 C.ar    1  UNL1        0.0623
     27 C         140.4426  144.3228  158.4360 C.ar    1  UNL1        0.0254
     28 C         139.5986  143.1150  158.7164 C.ar    1  UNL1        0.0972
     29 N         139.1992  141.9533  157.8438 N.ar    1  UNL1       -0.2400
     30 C         138.3373  140.8019  158.2697 C.ar    1  UNL1        0.1282
     31 C         137.7980  140.7459  159.6683 C.ar    1  UNL1        0.1588
     32 F         136.9361  139.5944  160.0941 F       1  UNL1       -0.2027
     33 C         138.1205  141.8413  160.6409 C.ar    1  UNL1        0.0500
     34 C         138.9907  142.9237  160.0743 C.ar    1  UNL1        0.0806
     35 N         139.2269  143.9402  161.1517 N.ar    1  UNL1       -0.2915
     36 C         138.5026  143.4860  162.3843 C.3     1  UNL1        0.1402
     37 C         137.8188  142.1888  162.0686 C.3     1  UNL1        0.1335
     38 O         137.0378  140.9083  162.0506 O.3     1  UNL1       -0.3806
     39 H         136.6345  140.7633  162.9207 H       1  UNL1        0.2108
@<TRIPOS>BOND
     1    24    25    2
     2    25    26   ar
     3    26    27   ar
     4    27    28   ar
     5    28    29   ar
     6    29    30   ar
     7    30    31   ar
     8    31    32    1
     9    31    33   ar
    10    33    34   ar
    11    34    35   ar
    12    35    36    1
    13    36    37    1
    14    37    38    1
    15    37    23    1
    16    23     1    1
    17     1     2    1
    18     2     3    1
    19     3     4    1
    20     4     9    1
    21     9    11    1
    22    11    12    1
    23    12    13   ar
    24    13    14   ar
    25    14    15   ar
    26    15    16   ar
    27    16    17   ar
    28    17    18    1
    29    15    19    1
    30    19    20    1
    31    20    21    1
    32    21    22    1
    33     4     5    1
    34     5     6    1
    35     4     7    1
    36     7     8    1
    37    35    25   ar
    38     6     1    1
    39    34    28   ar
    40     8     1    1
    41    37    33    1
    42    17    12   ar
    43    22    14    1
    44    38    39    1
    45     9    10    1
@<TRIPOS>MOLECULE
*****
 39 45 0 0 0
SMALL
GASTEIGER

@<TRIPOS>ATOM
      1 C         138.3735  141.8208  164.6650 C.3     1  UNL1        0.0955
      2 C         139.1233  142.8783  165.4197 C.3     1  UNL1        0.0287
      3 C         140.0548  142.4897  166.5294 C.3     1  UNL1        0.0193
      4 C         140.2363  141.0436  166.8844 C.3     1  UNL1        0.0700
      5 C         139.4865  139.9862  166.1297 C.3     1  UNL1        0.0193
      6 C         138.5550  140.3748  165.0200 C.3     1  UNL1        0.0287
      7 C         139.7149  141.2079  166.2686 C.3     1  UNL1        0.1562
      8 O         138.8727  141.5593  165.2652 O.3     1  UNL1       -0.3571
      9 N         141.1677  140.6550  167.9941 N.3     1  UNL1       -0.2938
     10 H         140.8571  139.7450  168.3342 H       1  UNL1        0.1235
     11 C         142.6400  140.5396  167.7316 C.3     1  UNL1        0.0966
     12 C         143.1619  140.6399  166.3289 C.ar    1  UNL1        0.0074
     13 C         143.3558  141.9856  165.6951 C.ar    1  UNL1        0.0380
     14 C         143.8777  142.0858  164.2924 C.ar    1  UNL1        0.1722
     15 C         144.2056  140.8404  163.5234 C.ar    1  UNL1        0.1732
     16 C         144.0117  139.4947  164.1572 C.ar    1  UNL1        0.0512
     17 C         143.4899  139.3945  165.5599 C.ar    1  UNL1        0.0582
     18 CL        143.2960  138.0488  166.1936 Cl      1  UNL1       -0.0824
     19 O         144.7275  140.9406  162.1207 O.3     1  UNL1       -0.4683
     20 C         144.9214  142.2864  161.4870 C.3     1  UNL1        0.2526
     21 C         144.5934  143.5317  162.2560 C.3     1  UNL1        0.2526
     22 O         144.0715  143.4315  163.6588 O.3     1  UNL1       -0.4684
     23 C         137.4420  142.2094  163.5553 C.3     1  UNL1        0.0604
     24 O         140.2972  146.1407  161.9195 O.2     1  UNL1       -0.2670
     25 C         140.0725  145.1018  160.8612 C.ar    1  UNL1        0.2611
     26 C         140.6634  145.2834  159.4945 C.ar    1  UNL1        0.0623
     27 C         140.4388  144.2445  158.4361 C.ar    1  UNL1        0.0254
     28 C         139.6232  143.0239  158.7444 C.ar    1  UNL1        0.0972
     29 N         139.2404  141.8399  157.8948 N.ar    1  UNL1       -0.2400
     30 C         138.4073  140.6777  158.3478 C.ar    1  UNL1        0.1282
     31 C         137.8824  140.6334  159.7522 C.ar    1  UNL1        0.1588
     32 F         137.0492  139.4712  160.2052 F       1  UNL1       -0.2027
     33 C         138.1907  141.7513  160.7037 C.ar    1  UNL1        0.0500
     34 C         139.0324  142.8423  160.1110 C.ar    1  UNL1        0.0806
     35 N         139.2570  143.8812  161.1694 N.ar    1  UNL1       -0.2915
     36 C         138.5542  143.4322  162.4162 C.3     1  UNL1        0.1402
     37 C         137.8951  142.1159  162.1284 C.3     1  UNL1        0.1335
     38 O         137.1414  140.8191  162.1389 O.3     1  UNL1       -0.3806
     39 H         136.7494  140.6799  163.0152 H       1  UNL1        0.2108
@<TRIPOS>BOND
     1    24    25    2
     2    25    26   ar
     3    26    27   ar
     4    27    28   ar
     5    28    29   ar
     6    29    30   ar
     7    30    31   ar
     8    31    32    1
     9    31    33   ar
    10    33    34   ar
    11    34    35   ar
    12    35    36    1
    13    36    37    1
    14    37    38    1
    15    37    23    1
    16    23     1    1
    17     1     2    1
    18     2     3    1
    19     3     4    1
    20     4     9    1
    21     9    11    1
    22    11    12    1
    23    12    13   ar
    24    13    14   ar
    25    14    15   ar
    26    15    16   ar
    27    16    17   ar
    28    17    18    1
    29    15    19    1
    30    19    20    1
    31    20    21    1
    32    21    22    1
    33     4     5    1
    34     5     6    1
    35     4     7    1
    36     7     8    1
    37    35    25   ar
    38     6     1    1
    39    34    28   ar
    40     8     1    1
    41    37    33    1
    42    17    12   ar
    43    22    14    1
    44    38    39    1
    45     9    10    1
@<TRIPOS>MOLECULE
*****
 39 45 0 0 0
SMALL
GASTEIGER

@<TRIPOS>ATOM
      1 C         138.5121  138.3917  163.3306 C.3     1  UNL1        0.0955
      2 C         138.2780  139.8107  163.7573 C.3     1  UNL1        0.0287
      3 C         138.3399  140.1768  165.2106 C.3     1  UNL1        0.0193
      4 C         138.6360  139.1241  166.2373 C.3     1  UNL1        0.0700
      5 C         138.8701  137.7052  165.8107 C.3     1  UNL1        0.0193
      6 C         138.8082  137.3390  164.3573 C.3     1  UNL1        0.0287
      7 C         138.6123  138.8754  165.4526 C.3     1  UNL1        0.1562
      8 O         138.5563  138.5444  164.1385 O.3     1  UNL1       -0.3571
      9 N         138.6979  139.4902  167.6906 N.3     1  UNL1       -0.2938
     10 H         138.4088  138.6644  168.2149 H       1  UNL1        0.1235
     11 C         139.9910  139.9546  168.2925 C.3     1  UNL1        0.0966
     12 C         141.0967  140.4468  167.4064 C.ar    1  UNL1        0.0074
     13 C         142.0114  139.4667  166.7336 C.ar    1  UNL1        0.0380
     14 C         143.1171  139.9590  165.8476 C.ar    1  UNL1        0.1722
     15 C         143.3081  141.4314  165.6343 C.ar    1  UNL1        0.1732
     16 C         142.3934  142.4115  166.3071 C.ar    1  UNL1        0.0512
     17 C         141.2877  141.9192  167.1931 C.ar    1  UNL1        0.0582
     18 CL        140.3730  142.8995  167.8659 Cl      1  UNL1       -0.0824
     19 O         144.4138  141.9237  164.7482 O.3     1  UNL1       -0.4683
     20 C         145.3285  140.9434  164.0755 C.3     1  UNL1        0.2526
     21 C         145.1375  139.4711  164.2888 C.3     1  UNL1        0.2526
     22 O         144.0318  138.9788  165.1749 O.3     1  UNL1       -0.4684
     23 C         138.4502  138.0256  161.8773 C.3     1  UNL1        0.0604
     24 O         137.0761  140.6143  157.6710 O.2     1  UNL1       -0.2670
     25 C         138.5540  140.3698  157.7497 C.ar    1  UNL1        0.2611
     26 C         139.4560  140.8702  156.6607 C.ar    1  UNL1        0.0623
     27 C         140.9338  140.6258  156.7394 C.ar    1  UNL1        0.0254
     28 C         141.5097  139.8809  157.9070 C.ar    1  UNL1        0.0972
     29 N         142.9273  139.4971  158.2439 N.ar    1  UNL1       -0.2400
     30 C         143.3564  138.7408  159.4661 C.ar    1  UNL1        0.1282
     31 C         142.3354  138.3029  160.4740 C.ar    1  UNL1        0.1588
     32 F         142.7644  137.5467  161.6962 F       1  UNL1       -0.2027
     33 C         140.8853  138.6212  160.2595 C.ar    1  UNL1        0.0500
     34 C         140.6077  139.3805  158.9960 C.ar    1  UNL1        0.0806
     35 N         139.1298  139.6250  158.9173 N.ar    1  UNL1       -0.2915
     36 C         138.4941  139.0167  160.1322 C.3     1  UNL1        0.1402
     37 C         139.5790  138.3963  160.9617 C.3     1  UNL1        0.1335
     38 O         140.4279  137.6985  161.9826 O.3     1  UNL1       -0.3806
     39 H         139.8645  137.3655  162.6986 H       1  UNL1        0.2108
@<TRIPOS>BOND
     1    24    25    2
     2    25    26   ar
     3    26    27   ar
     4    27    28   ar
     5    28    29   ar
     6    29    30   ar
     7    30    31   ar
     8    31    32    1
     9    31    33   ar
    10    33    34   ar
    11    34    35   ar
    12    35    36    1
    13    36    37    1
    14    37    38    1
    15    37    23    1
    16    23     1    1
    17     1     2    1
    18     2     3    1
    19     3     4    1
    20     4     9    1
    21     9    11    1
    22    11    12    1
    23    12    13   ar
    24    13    14   ar
    25    14    15   ar
    26    15    16   ar
    27    16    17   ar
    28    17    18    1
    29    15    19    1
    30    19    20    1
    31    20    21    1
    32    21    22    1
    33     4     5    1
    34     5     6    1
    35     4     7    1
    36     7     8    1
    37    35    25   ar
    38     6     1    1
    39    34    28   ar
    40     8     1    1
    41    37    33    1
    42    17    12   ar
    43    22    14    1
    44    38    39    1
    45     9    10    1
@<TRIPOS>MOLECULE
*****
 39 45 0 0 0
SMALL
GASTEIGER

@<TRIPOS>ATOM
      1 C         138.0207  140.3483  162.3804 C.3     1  UNL1        0.0955
      2 C         137.8440  141.6648  161.6835 C.3     1  UNL1        0.0287
      3 C         137.7615  142.9314  162.4829 C.3     1  UNL1        0.0193
      4 C         137.8558  142.8815  163.9791 C.3     1  UNL1        0.0700
      5 C         138.0325  141.5650  164.6759 C.3     1  UNL1        0.0193
      6 C         138.1150  140.2983  163.8766 C.3     1  UNL1        0.0287
      7 C         137.9062  142.1609  163.5837 C.3     1  UNL1        0.1562
      8 O         137.9808  141.0157  162.8610 O.3     1  UNL1       -0.3571
      9 N         137.7733  144.1481  164.7785 N.3     1  UNL1       -0.2938
     10 H         137.4371  143.8895  165.7061 H       1  UNL1        0.1235
     11 C         138.9993  144.9882  164.9809 C.3     1  UNL1        0.0966
     12 C         140.2975  144.5860  164.3460 C.ar    1  UNL1        0.0074
     13 C         141.2052  143.6169  165.0437 C.ar    1  UNL1        0.0380
     14 C         142.5033  143.2146  164.4087 C.ar    1  UNL1        0.1722
     15 C         142.8937  143.7816  163.0760 C.ar    1  UNL1        0.1732
     16 C         141.9860  144.7507  162.3783 C.ar    1  UNL1        0.0512
     17 C         140.6879  145.1529  163.0132 C.ar    1  UNL1        0.0582
     18 CL        139.7802  146.1220  162.3154 Cl      1  UNL1       -0.0824
     19 O         144.1918  143.3793  162.4410 O.3     1  UNL1       -0.4683
     20 C         145.0994  142.4102  163.1389 C.3     1  UNL1        0.2526
     21 C         144.7090  141.8433  164.4716 C.3     1  UNL1        0.2526
     22 O         143.4109  142.2456  165.1066 O.3     1  UNL1       -0.4684
     23 C         138.1032  139.0817  161.5811 C.3     1  UNL1        0.0604
     24 O         137.9591  139.8654  156.5167 O.2     1  UNL1       -0.2670
     25 C         139.2780  139.3279  156.9873 C.ar    1  UNL1        0.2611
     26 C         140.3808  139.0779  156.0017 C.ar    1  UNL1        0.0623
     27 C         141.6997  138.5404  156.4723 C.ar    1  UNL1        0.0254
     28 C         141.9159  138.2528  157.9285 C.ar    1  UNL1        0.0972
     29 N         143.1127  137.7193  158.6724 N.ar    1  UNL1       -0.2400
     30 C         143.1816  137.4808  160.1517 C.ar    1  UNL1        0.1282
     31 C         141.9922  137.7792  161.0157 C.ar    1  UNL1        0.1588
     32 F         142.0611  137.5407  162.4950 F       1  UNL1       -0.2027
     33 C         140.7340  138.3160  160.4003 C.ar    1  UNL1        0.0500
     34 C         140.8132  138.5028  158.9141 C.ar    1  UNL1        0.0806
     35 N         139.4943  139.0403  158.4435 N.ar    1  UNL1       -0.2915
     36 C         138.5999  139.1857  159.6389 C.3     1  UNL1        0.1402
     37 C         139.3661  138.7381  160.8483 C.3     1  UNL1        0.1335
     38 O         139.8683  138.3623  162.2108 O.3     1  UNL1       -0.3806
     39 H         139.1701  138.5160  162.8665 H       1  UNL1        0.2108
@<TRIPOS>BOND
     1    24    25    2
     2    25    26   ar
     3    26    27   ar
     4    27    28   ar
     5    28    29   ar
     6    29    30   ar
     7    30    31   ar
     8    31    32    1
     9    31    33   ar
    10    33    34   ar
    11    34    35   ar
    12    35    36    1
    13    36    37    1
    14    37    38    1
    15    37    23    1
    16    23     1    1
    17     1     2    1
    18     2     3    1
    19     3     4    1
    20     4     9    1
    21     9    11    1
    22    11    12    1
    23    12    13   ar
    24    13    14   ar
    25    14    15   ar
    26    15    16   ar
    27    16    17   ar
    28    17    18    1
    29    15    19    1
    30    19    20    1
    31    20    21    1
    32    21    22    1
    33     4     5    1
    34     5     6    1
    35     4     7    1
    36     7     8    1
    37    35    25   ar
    38     6     1    1
    39    34    28   ar
    40     8     1    1
    41    37    33    1
    42    17    12   ar
    43    22    14    1
    44    38    39    1
    45     9    10    1
@<TRIPOS>MOLECULE
*****
 39 45 0 0 0
SMALL
GASTEIGER

@<TRIPOS>ATOM
      1 C         143.9076  140.1618  159.9088 C.3     1  UNL1        0.0955
      2 C         143.4372  140.0886  158.4862 C.3     1  UNL1        0.0287
      3 C         143.2962  141.3439  157.6774 C.3     1  UNL1        0.0193
      4 C         143.6255  142.6724  158.2909 C.3     1  UNL1        0.0700
      5 C         144.0959  142.7457  159.7133 C.3     1  UNL1        0.0193
      6 C         144.2370  141.4904  160.5223 C.3     1  UNL1        0.0287
      7 C         143.7183  142.0118  158.7737 C.3     1  UNL1        0.1562
      8 O         143.8459  140.8768  159.5051 O.3     1  UNL1       -0.3571
      9 N         143.4845  143.9278  157.4820 N.3     1  UNL1       -0.2938
     10 H         143.5843  143.6599  156.5029 H       1  UNL1        0.1235
     11 C         142.2320  144.7471  157.5813 C.3     1  UNL1        0.0966
     12 C         141.1510  144.3512  158.5431 C.ar    1  UNL1        0.0074
     13 C         141.1145  144.9494  159.9181 C.ar    1  UNL1        0.0380
     14 C         140.0335  144.5534  160.8798 C.ar    1  UNL1        0.1722
     15 C         138.9891  143.5593  160.4664 C.ar    1  UNL1        0.1732
     16 C         139.0256  142.9611  159.0913 C.ar    1  UNL1        0.0512
     17 C         140.1066  143.3571  158.1296 C.ar    1  UNL1        0.0582
     18 CL        140.1430  142.7588  156.7545 Cl      1  UNL1       -0.0824
     19 O         137.9081  143.1634  161.4280 O.3     1  UNL1       -0.4683
     20 C         137.8717  143.7616  162.8031 C.3     1  UNL1        0.2526
     21 C         138.9161  144.7557  163.2165 C.3     1  UNL1        0.2526
     22 O         139.9971  145.1516  162.2548 O.3     1  UNL1       -0.4684
     23 C         144.0487  138.9065  160.7177 C.3     1  UNL1        0.0604
     24 O         139.0450  137.8146  160.9486 O.2     1  UNL1       -0.2670
     25 C         139.6638  138.0073  162.3014 C.ar    1  UNL1        0.2611
     26 C         138.8233  137.8738  163.5365 C.ar    1  UNL1        0.0623
     27 C         139.4422  138.0664  164.8893 C.ar    1  UNL1        0.0254
     28 C         140.9015  138.3926  165.0068 C.ar    1  UNL1        0.0972
     29 N         141.7752  138.6352  166.2103 N.ar    1  UNL1       -0.2400
     30 C         143.2399  138.9560  166.1710 C.ar    1  UNL1        0.1282
     31 C         143.9504  139.0574  164.8539 C.ar    1  UNL1        0.1588
     32 F         145.4151  139.3783  164.8146 F       1  UNL1       -0.2027
     33 C         143.1961  138.8381  163.5760 C.ar    1  UNL1        0.0500
     34 C         141.7420  138.5261  163.7717 C.ar    1  UNL1        0.0806
     35 N         141.1232  138.3334  162.4189 N.ar    1  UNL1       -0.2915
     36 C         142.1948  138.5263  161.3873 C.3     1  UNL1        0.1402
     37 C         143.4760  138.8382  162.1023 C.3     1  UNL1        0.1335
     38 O         144.8769  139.1644  162.5280 O.3     1  UNL1       -0.3806
     39 H         145.4402  139.2556  161.7436 H       1  UNL1        0.2108
@<TRIPOS>BOND
     1    24    25    2
     2    25    26   ar
     3    26    27   ar
     4    27    28   ar
     5    28    29   ar
     6    29    30   ar
     7    30    31   ar
     8    31    32    1
     9    31    33   ar
    10    33    34   ar
    11    34    35   ar
    12    35    36    1
    13    36    37    1
    14    37    38    1
    15    37    23    1
    16    23     1    1
    17     1     2    1
    18     2     3    1
    19     3     4    1
    20     4     9    1
    21     9    11    1
    22    11    12    1
    23    12    13   ar
    24    13    14   ar
    25    14    15   ar
    26    15    16   ar
    27    16    17   ar
    28    17    18    1
    29    15    19    1
    30    19    20    1
    31    20    21    1
    32    21    22    1
    33     4     5    1
    34     5     6    1
    35     4     7    1
    36     7     8    1
    37    35    25   ar
    38     6     1    1
    39    34    28   ar
    40     8     1    1
    41    37    33    1
    42    17    12   ar
    43    22    14    1
    44    38    39    1
    45     9    10    1
@<TRIPOS>MOLECULE
*****
 39 45 0 0 0
SMALL
GASTEIGER

@<TRIPOS>ATOM
      1 C         144.0282  139.8571  164.4602 C.3     1  UNL1        0.0955
      2 C         144.3688  141.3062  164.6453 C.3     1  UNL1        0.0287
      3 C         144.7786  142.1369  163.4654 C.3     1  UNL1        0.0193
      4 C         144.8478  141.5186  162.1006 C.3     1  UNL1        0.0700
      5 C         144.5072  140.0696  161.9156 C.3     1  UNL1        0.0193
      6 C         144.0974  139.2388  163.0954 C.3     1  UNL1        0.0287
      7 C         144.6180  141.0232  162.7170 C.3     1  UNL1        0.1562
      8 O         144.2474  140.2721  163.7837 O.3     1  UNL1       -0.3571
      9 N         145.2576  142.3493  160.9208 N.3     1  UNL1       -0.2938
     10 H         145.8495  141.7590  160.3363 H       1  UNL1        0.1235
     11 C         144.2133  142.9409  160.0212 C.3     1  UNL1        0.0966
     12 C         142.7694  142.9102  160.4266 C.ar    1  UNL1        0.0074
     13 C         142.2425  143.9208  161.4018 C.ar    1  UNL1        0.0380
     14 C         140.7986  143.8900  161.8072 C.ar    1  UNL1        0.1722
     15 C         139.8817  142.8487  161.2373 C.ar    1  UNL1        0.1732
     16 C         140.4086  141.8381  160.2621 C.ar    1  UNL1        0.0512
     17 C         141.8524  141.8689  159.8567 C.ar    1  UNL1        0.0582
     18 CL        142.3793  140.8582  158.8814 Cl      1  UNL1       -0.0824
     19 O         138.4378  142.8179  161.6427 O.3     1  UNL1       -0.4683
     20 C         137.9110  143.8286  162.6180 C.3     1  UNL1        0.2526
     21 C         138.8279  144.8699  163.1878 C.3     1  UNL1        0.2526
     22 O         140.2718  144.9006  162.7824 O.3     1  UNL1       -0.4684
     23 C         143.6184  139.0264  165.6401 C.3     1  UNL1        0.0604
     24 O         143.0764  141.1974  170.2526 O.2     1  UNL1       -0.2670
     25 C         141.7736  140.7429  169.6643 C.ar    1  UNL1        0.2611
     26 C         140.4962  140.9465  170.4236 C.ar    1  UNL1        0.0623
     27 C         139.1934  140.4920  169.8352 C.ar    1  UNL1        0.0254
     28 C         139.1680  139.8339  168.4875 C.ar    1  UNL1        0.0972
     29 N         138.0292  139.2874  167.6661 N.ar    1  UNL1       -0.2400
     30 C         138.1597  138.6481  166.3155 C.ar    1  UNL1        0.1282
     31 C         139.5104  138.5128  165.6772 C.ar    1  UNL1        0.1588
     32 F         139.6409  137.8734  164.3265 F       1  UNL1       -0.2027
     33 C         140.7305  139.0168  166.3895 C.ar    1  UNL1        0.0500
     34 C         140.4455  139.6303  167.7282 C.ar    1  UNL1        0.0806
     35 N         141.7483  140.0848  168.3166 N.ar    1  UNL1       -0.2915
     36 C         142.8384  139.7521  167.3414 C.3     1  UNL1        0.1402
     37 C         142.2094  139.0920  166.1504 C.3     1  UNL1        0.1335
     38 O         141.8749  138.4182  164.8527 O.3     1  UNL1       -0.3806
     39 H         142.6880  138.2759  164.3432 H       1  UNL1        0.2108
@<TRIPOS>BOND
     1    24    25    2
     2    25    26   ar
     3    26    27   ar
     4    27    28   ar
     5    28    29   ar
     6    29    30   ar
     7    30    31   ar
     8    31    32    1
     9    31    33   ar
    10    33    34   ar
    11    34    35   ar
    12    35    36    1
    13    36    37    1
    14    37    38    1
    15    37    23    1
    16    23     1    1
    17     1     2    1
    18     2     3    1
    19     3     4    1
    20     4     9    1
    21     9    11    1
    22    11    12    1
    23    12    13   ar
    24    13    14   ar
    25    14    15   ar
    26    15    16   ar
    27    16    17   ar
    28    17    18    1
    29    15    19    1
    30    19    20    1
    31    20    21    1
    32    21    22    1
    33     4     5    1
    34     5     6    1
    35     4     7    1
    36     7     8    1
    37    35    25   ar
    38     6     1    1
    39    34    28   ar
    40     8     1    1
    41    37    33    1
    42    17    12   ar
    43    22    14    1
    44    38    39    1
    45     9    10    1
@<TRIPOS>MOLECULE
*****
 39 45 0 0 0
SMALL
GASTEIGER

@<TRIPOS>ATOM
      1 C         137.8497  140.8091  161.7794 C.3     1  UNL1        0.0955
      2 C         137.6541  140.6033  163.2524 C.3     1  UNL1        0.0287
      3 C         137.6301  141.7834  164.1779 C.3     1  UNL1        0.0193
      4 C         137.8017  143.1694  163.6306 C.3     1  UNL1        0.0700
      5 C         137.9973  143.3752  162.1577 C.3     1  UNL1        0.0193
      6 C         138.0213  142.1951  161.2321 C.3     1  UNL1        0.0287
      7 C         137.8220  142.5537  163.0842 C.3     1  UNL1        0.1562
      8 O         137.8437  141.4866  162.2473 O.3     1  UNL1       -0.3571
      9 N         137.7778  144.3496  164.5561 N.3     1  UNL1       -0.2938
     10 H         137.1566  144.1062  165.3276 H       1  UNL1        0.1235
     11 C         139.0530  144.8489  165.1679 C.3     1  UNL1        0.0966
     12 C         140.3477  144.1483  164.8797 C.ar    1  UNL1        0.0074
     13 C         141.1610  144.5382  163.6812 C.ar    1  UNL1        0.0380
     14 C         142.4556  143.8376  163.3930 C.ar    1  UNL1        0.1722
     15 C         142.9370  142.7470  164.3035 C.ar    1  UNL1        0.1732
     16 C         142.1238  142.3571  165.5020 C.ar    1  UNL1        0.0512
     17 C         140.8291  143.0577  165.7901 C.ar    1  UNL1        0.0582
     18 CL        140.0159  142.6676  166.9888 Cl      1  UNL1       -0.0824
     19 O         144.2317  142.0464  164.0153 O.3     1  UNL1       -0.4683
     20 C         145.0449  142.4365  162.8167 C.3     1  UNL1        0.2526
     21 C         144.5635  143.5270  161.9064 C.3     1  UNL1        0.2526
     22 O         143.2688  144.2277  162.1945 O.3     1  UNL1       -0.4684
     23 C         137.8737  139.6289  160.8539 C.3     1  UNL1        0.0604
     24 O         141.7585  138.6433  164.0507 O.2     1  UNL1       -0.2670
     25 C         142.1298  138.4664  162.6082 C.ar    1  UNL1        0.2611
     26 C         143.5201  138.0420  162.2383 C.ar    1  UNL1        0.0623
     27 C         143.8915  137.8650  160.7958 C.ar    1  UNL1        0.0254
     28 C         142.8725  138.1125  159.7232 C.ar    1  UNL1        0.0972
     29 N         142.9612  138.0154  158.2222 N.ar    1  UNL1       -0.2400
     30 C         141.8415  138.2978  157.2649 C.ar    1  UNL1        0.1282
     31 C         140.4979  138.7156  157.7846 C.ar    1  UNL1        0.1588
     32 F         139.3782  138.9980  156.8273 F       1  UNL1       -0.2027
     33 C         140.2740  138.8511  159.2616 C.ar    1  UNL1        0.0500
     34 C         141.4822  138.5369  160.0932 C.ar    1  UNL1        0.0806
     35 N         141.1109  138.7138  161.5357 N.ar    1  UNL1       -0.2915
     36 C         139.6732  139.1374  161.5956 C.3     1  UNL1        0.1402
     37 C         139.1559  139.2222  160.1901 C.3     1  UNL1        0.1335
     38 O         138.3707  139.3921  158.9235 O.3     1  UNL1       -0.3806
     39 H         137.4657  139.6671  159.1385 H       1  UNL1        0.2108
@<TRIPOS>BOND
     1    24    25    2
     2    25    26   ar
     3    26    27   ar
     4    27    28   ar
     5    28    29   ar
     6    29    30   ar
     7    30    31   ar
     8    31    32    1
     9    31    33   ar
    10    33    34   ar
    11    34    35   ar
    12    35    36    1
    13    36    37    1
    14    37    38    1
    15    37    23    1
    16    23     1    1
    17     1     2    1
    18     2     3    1
    19     3     4    1
    20     4     9    1
    21     9    11    1
    22    11    12    1
    23    12    13   ar
    24    13    14   ar
    25    14    15   ar
    26    15    16   ar
    27    16    17   ar
    28    17    18    1
    29    15    19    1
    30    19    20    1
    31    20    21    1
    32    21    22    1
    33     4     5    1
    34     5     6    1
    35     4     7    1
    36     7     8    1
    37    35    25   ar
    38     6     1    1
    39    34    28   ar
    40     8     1    1
    41    37    33    1
    42    17    12   ar
    43    22    14    1
    44    38    39    1
    45     9    10    1
