@<TRIPOS>MOLECULE
*****
 35 38 0 0 0
SMALL
GASTEIGER

@<TRIPOS>ATOM
      1 C         138.9520  140.2840  164.3591 C.ar    1  UNL1        0.0182
      2 C         138.0654  139.8634  165.4935 C.ar    1  UNL1        0.0014
      3 C         138.1691  138.4748  166.0513 C.ar    1  UNL1        0.0031
      4 C         139.1593  137.5069  165.4746 C.ar    1  UNL1        0.0366
      5 C         140.0459  137.9276  164.3401 C.ar    1  UNL1        0.1347
      6 C         139.9422  139.3161  163.7824 C.ar    1  UNL1        0.0151
      7 C         140.8288  139.7368  162.6478 C.3     1  UNL1        0.0528
      8 C         141.8190  138.7689  162.0711 C.3     1  UNL1        0.1200
      9 C         141.9227  137.3803  162.6289 C.3     1  UNL1        0.2250
     10 O         141.0361  136.9596  163.7634 O.3     1  UNL1       -0.4740
     11 C         138.6410  144.4498  162.6857 C.ar    1  UNL1        0.2449
     12 C         139.5836  144.1645  163.8171 C.ar    1  UNL1        0.1564
     13 N         139.6873  142.7758  164.3749 N.ar    1  UNL1       -0.2374
     14 C         138.8483  141.6726  163.8013 C.ar    1  UNL1        0.1005
     15 C         137.9057  141.9580  162.6699 C.ar    1  UNL1        0.1211
     16 N         137.8021  143.3465  162.1121 N.ar    1  UNL1       -0.2072
     17 C         139.7164  146.4602  161.4400 C.3     1  UNL1        0.2543
     18 O         138.5374  145.8383  162.1279 O.3     1  UNL1       -0.4551
     19 N         142.7056  139.1895  160.9367 N.am    1  UNL1       -0.2986
     20 C         142.2376  139.0308  159.5204 C.2     1  UNL1        0.2474
     21 O         140.8830  138.4514  159.2386 O.2     1  UNL1       -0.2701
     22 H         143.5946  139.5698  161.1216 H       1  UNL1        0.1498
     23 C         143.1242  139.4514  158.3859 C.ar    1  UNL1        0.0725
     24 C         143.9483  140.6995  158.5011 C.ar    1  UNL1        0.0074
     25 C         144.8349  141.1202  157.3667 C.ar    1  UNL1        0.0174
     26 C         144.8974  140.2928  156.1171 C.ar    1  UNL1        0.0888
     27 N         144.0733  139.0448  156.0020 N.ar    1  UNL1       -0.2455
     28 C         143.1867  138.6241  157.1363 C.ar    1  UNL1        0.1030
     29 C         145.7841  140.7135  154.9827 C.3     1  UNL1        0.1878
     30 O         145.9449  142.1687  154.6563 O.3     1  UNL1       -0.3391
     31 C         147.3022  142.8046  154.7133 C.3     1  UNL1        0.2462
     32 C         148.4805  142.0150  155.2013 C.3     1  UNL1        0.4248
     33 F         149.6588  141.2253  155.6892 F       1  UNL1       -0.1674
     34 F         148.1127  142.3418  156.6183 F       1  UNL1       -0.1674
     35 F         148.8483  141.6882  153.7842 F       1  UNL1       -0.1674
@<TRIPOS>BOND
     1    17    18    1
     2    18    11    1
     3    11    12   ar
     4    12    13   ar
     5    13    14   ar
     6    14     1    1
     7     1     2   ar
     8     2     3   ar
     9     3     4   ar
    10     4     5   ar
    11     5     6   ar
    12     6     7    1
    13     7     8    1
    14     8    19    1
    15    19    20   am
    16    20    21    2
    17    20    23    1
    18    23    24   ar
    19    24    25   ar
    20    25    26   ar
    21    26    29    1
    22    29    30    1
    23    30    31    1
    24    31    32    1
    25    32    33    1
    26    32    34    1
    27    32    35    1
    28    26    27   ar
    29    27    28   ar
    30     8     9    1
    31     9    10    1
    32    14    15   ar
    33    15    16   ar
    34    16    11   ar
    35     6     1   ar
    36    28    23   ar
    37    10     5    1
    38    19    22    1
@<TRIPOS>MOLECULE
*****
 35 38 0 0 0
SMALL
GASTEIGER

@<TRIPOS>ATOM
      1 C         140.9209  142.2459  166.6152 C.ar    1  UNL1        0.0182
      2 C         140.7264  142.6716  168.0403 C.ar    1  UNL1        0.0014
      3 C         141.2462  141.8150  169.1565 C.ar    1  UNL1        0.0031
      4 C         141.9605  140.5326  168.8476 C.ar    1  UNL1        0.0366
      5 C         142.1550  140.1069  167.4225 C.ar    1  UNL1        0.1347
      6 C         141.6352  140.9636  166.3063 C.ar    1  UNL1        0.0151
      7 C         141.8296  140.5379  164.8812 C.3     1  UNL1        0.0528
      8 C         142.5439  139.2555  164.5723 C.3     1  UNL1        0.1200
      9 C         143.0638  138.3989  165.6886 C.3     1  UNL1        0.2250
     10 O         142.8693  138.8246  167.1136 O.3     1  UNL1       -0.4740
     11 C         139.3613  144.8157  163.2665 C.ar    1  UNL1        0.2449
     12 C         140.8116  144.8755  163.6447 C.ar    1  UNL1        0.1564
     13 N         141.3315  144.0189  164.7610 N.ar    1  UNL1       -0.2374
     14 C         140.4010  143.1025  165.4990 C.ar    1  UNL1        0.1005
     15 C         138.9507  143.0427  165.1207 C.ar    1  UNL1        0.1211
     16 N         138.4309  143.8993  164.0044 N.ar    1  UNL1       -0.2072
     17 C         139.7792  146.1802  161.0955 C.3     1  UNL1        0.2543
     18 O         138.8415  145.6723  162.1502 O.3     1  UNL1       -0.4551
     19 N         142.7384  138.8298  163.1472 N.am    1  UNL1       -0.2986
     20 C         141.5791  138.8438  162.1954 C.2     1  UNL1        0.2474
     21 O         140.2254  139.2835  162.6687 O.2     1  UNL1       -0.2701
     22 H         143.6269  138.5413  162.8365 H       1  UNL1        0.1498
     23 C         141.7737  138.4181  160.7702 C.ar    1  UNL1        0.0725
     24 C         140.6932  138.6653  159.7595 C.ar    1  UNL1        0.0074
     25 C         140.8877  138.2396  158.3344 C.ar    1  UNL1        0.0174
     26 C         142.1626  137.5667  157.9201 C.ar    1  UNL1        0.0888
     27 N         143.2431  137.3195  158.9308 N.ar    1  UNL1       -0.2455
     28 C         143.0486  137.7452  160.3559 C.ar    1  UNL1        0.1030
     29 C         142.3572  137.1409  156.4949 C.3     1  UNL1        0.1878
     30 O         143.2847  136.0075  156.1707 O.3     1  UNL1       -0.3391
     31 C         142.9451  134.6127  156.6055 C.3     1  UNL1        0.2462
     32 C         143.9717  133.7756  157.3093 C.3     1  UNL1        0.4248
     33 F         144.9983  132.9385  158.0131 F       1  UNL1       -0.1674
     34 F         144.4392  133.2388  155.9890 F       1  UNL1       -0.1674
     35 F         143.5043  134.3124  158.6297 F       1  UNL1       -0.1674
@<TRIPOS>BOND
     1    17    18    1
     2    18    11    1
     3    11    12   ar
     4    12    13   ar
     5    13    14   ar
     6    14     1    1
     7     1     2   ar
     8     2     3   ar
     9     3     4   ar
    10     4     5   ar
    11     5     6   ar
    12     6     7    1
    13     7     8    1
    14     8    19    1
    15    19    20   am
    16    20    21    2
    17    20    23    1
    18    23    24   ar
    19    24    25   ar
    20    25    26   ar
    21    26    29    1
    22    29    30    1
    23    30    31    1
    24    31    32    1
    25    32    33    1
    26    32    34    1
    27    32    35    1
    28    26    27   ar
    29    27    28   ar
    30     8     9    1
    31     9    10    1
    32    14    15   ar
    33    15    16   ar
    34    16    11   ar
    35     6     1   ar
    36    28    23   ar
    37    10     5    1
    38    19    22    1
@<TRIPOS>MOLECULE
*****
 35 38 0 0 0
SMALL
GASTEIGER

@<TRIPOS>ATOM
      1 C         139.5998  142.4898  164.5669 C.ar    1  UNL1        0.0182
      2 C         138.7843  143.4685  165.3587 C.ar    1  UNL1        0.0014
      3 C         137.8464  144.4048  164.6561 C.ar    1  UNL1        0.0031
      4 C         137.7241  144.3624  163.1617 C.ar    1  UNL1        0.0366
      5 C         138.5396  143.3837  162.3699 C.ar    1  UNL1        0.1347
      6 C         139.4775  142.4474  163.0725 C.ar    1  UNL1        0.0151
      7 C         140.2930  141.4686  162.2806 C.3     1  UNL1        0.0528
      8 C         140.1707  141.4262  160.7862 C.3     1  UNL1        0.1200
      9 C         139.2327  142.3626  160.0837 C.3     1  UNL1        0.2250
     10 O         138.4172  143.3413  160.8755 O.3     1  UNL1       -0.4740
     11 C         142.4136  139.6807  166.6746 C.ar    1  UNL1        0.2449
     12 C         141.0651  139.1975  166.2295 C.ar    1  UNL1        0.1564
     13 N         140.1272  140.1339  165.5269 N.ar    1  UNL1       -0.2374
     14 C         140.5377  141.5534  165.2694 C.ar    1  UNL1        0.1005
     15 C         141.8862  142.0366  165.7145 C.ar    1  UNL1        0.1211
     16 N         142.8241  141.1003  166.4171 N.ar    1  UNL1       -0.2072
     17 C         144.0975  137.7039  166.5957 C.3     1  UNL1        0.2543
     18 O         143.3515  138.7444  167.3771 O.3     1  UNL1       -0.4551
     19 N         140.9862  140.4475  159.9944 N.am    1  UNL1       -0.2986
     20 C         140.3052  139.3673  159.2074 C.2     1  UNL1        0.2474
     21 O         138.8086  139.2658  159.2122 O.2     1  UNL1       -0.2701
     22 H         141.9684  140.5141  159.9913 H       1  UNL1        0.1498
     23 C         141.1208  138.3885  158.4156 C.ar    1  UNL1        0.0725
     24 C         140.5360  137.7375  157.1973 C.ar    1  UNL1        0.0074
     25 C         141.3516  136.7588  156.4054 C.ar    1  UNL1        0.0174
     26 C         142.7518  136.4311  156.8319 C.ar    1  UNL1        0.0888
     27 N         143.3365  137.0821  158.0502 N.ar    1  UNL1       -0.2455
     28 C         142.5210  138.0608  158.8421 C.ar    1  UNL1        0.1030
     29 C         143.5674  135.4524  156.0401 C.3     1  UNL1        0.1878
     30 O         143.0460  134.0676  155.7940 O.3     1  UNL1       -0.3391
     31 C         143.2049  133.0087  156.8445 C.3     1  UNL1        0.2462
     32 C         144.4991  132.8823  157.5922 C.3     1  UNL1        0.4248
     33 F         145.7932  132.7559  158.3400 F       1  UNL1       -0.1674
     34 F         145.0268  131.9702  156.5247 F       1  UNL1       -0.1674
     35 F         143.9713  133.7944  158.6598 F       1  UNL1       -0.1674
@<TRIPOS>BOND
     1    17    18    1
     2    18    11    1
     3    11    12   ar
     4    12    13   ar
     5    13    14   ar
     6    14     1    1
     7     1     2   ar
     8     2     3   ar
     9     3     4   ar
    10     4     5   ar
    11     5     6   ar
    12     6     7    1
    13     7     8    1
    14     8    19    1
    15    19    20   am
    16    20    21    2
    17    20    23    1
    18    23    24   ar
    19    24    25   ar
    20    25    26   ar
    21    26    29    1
    22    29    30    1
    23    30    31    1
    24    31    32    1
    25    32    33    1
    26    32    34    1
    27    32    35    1
    28    26    27   ar
    29    27    28   ar
    30     8     9    1
    31     9    10    1
    32    14    15   ar
    33    15    16   ar
    34    16    11   ar
    35     6     1   ar
    36    28    23   ar
    37    10     5    1
    38    19    22    1
@<TRIPOS>MOLECULE
*****
 35 38 0 0 0
SMALL
GASTEIGER

@<TRIPOS>ATOM
      1 C         134.7264  141.1709  154.7257 C.ar    1  UNL1        0.0182
      2 C         134.4115  141.6171  153.3286 C.ar    1  UNL1        0.0014
      3 C         135.4560  142.3184  152.5119 C.ar    1  UNL1        0.0031
      4 C         136.8154  142.5737  153.0923 C.ar    1  UNL1        0.0366
      5 C         137.1304  142.1276  154.4893 C.ar    1  UNL1        0.1347
      6 C         136.0858  141.4262  155.3060 C.ar    1  UNL1        0.0151
      7 C         136.4007  140.9800  156.7031 C.3     1  UNL1        0.0528
      8 C         137.7602  141.2353  157.2835 C.3     1  UNL1        0.1200
      9 C         138.8047  141.9367  156.4667 C.3     1  UNL1        0.2250
     10 O         138.4898  142.3828  155.0697 O.3     1  UNL1       -0.4740
     11 C         131.5928  139.0668  157.1759 C.ar    1  UNL1        0.2449
     12 C         132.9280  138.4211  156.9516 C.ar    1  UNL1        0.1564
     13 N         133.9726  139.1225  156.1349 N.ar    1  UNL1       -0.2374
     14 C         133.6819  140.4695  155.5424 C.ar    1  UNL1        0.1005
     15 C         132.3467  141.1152  155.7667 C.ar    1  UNL1        0.1211
     16 N         131.3022  140.4139  156.5835 N.ar    1  UNL1       -0.2072
     17 C         129.2093  138.0558  157.3917 C.3     1  UNL1        0.2543
     18 O         130.5483  138.3655  157.9927 O.3     1  UNL1       -0.4551
     19 N         138.0751  140.7891  158.6805 N.am    1  UNL1       -0.2986
     20 C         138.8176  139.5059  158.9086 C.2     1  UNL1        0.2474
     21 O         139.2452  138.6688  157.7397 O.2     1  UNL1       -0.2701
     22 H         137.7945  141.3385  159.4477 H       1  UNL1        0.1498
     23 C         139.1325  139.0598  160.3057 C.ar    1  UNL1        0.0725
     24 C         138.0543  139.0424  161.3484 C.ar    1  UNL1        0.0074
     25 C         138.3692  138.5963  162.7455 C.ar    1  UNL1        0.0174
     26 C         139.7622  138.1677  163.0999 C.ar    1  UNL1        0.0888
     27 N         140.8404  138.1851  162.0572 N.ar    1  UNL1       -0.2455
     28 C         140.5256  138.6312  160.6601 C.ar    1  UNL1        0.1030
     29 C         140.0772  137.7215  164.4970 C.3     1  UNL1        0.1878
     30 O         140.6576  138.6930  165.4816 O.3     1  UNL1       -0.3391
     31 C         139.7919  139.7619  166.0799 C.3     1  UNL1        0.2462
     32 C         138.7220  139.3961  167.0655 C.3     1  UNL1        0.4248
     33 F         137.6521  139.0304  168.0512 F       1  UNL1       -0.1674
     34 F         139.7209  139.4811  168.1814 F       1  UNL1       -0.1674
     35 F         137.7231  139.3112  165.9497 F       1  UNL1       -0.1674
@<TRIPOS>BOND
     1    17    18    1
     2    18    11    1
     3    11    12   ar
     4    12    13   ar
     5    13    14   ar
     6    14     1    1
     7     1     2   ar
     8     2     3   ar
     9     3     4   ar
    10     4     5   ar
    11     5     6   ar
    12     6     7    1
    13     7     8    1
    14     8    19    1
    15    19    20   am
    16    20    21    2
    17    20    23    1
    18    23    24   ar
    19    24    25   ar
    20    25    26   ar
    21    26    29    1
    22    29    30    1
    23    30    31    1
    24    31    32    1
    25    32    33    1
    26    32    34    1
    27    32    35    1
    28    26    27   ar
    29    27    28   ar
    30     8     9    1
    31     9    10    1
    32    14    15   ar
    33    15    16   ar
    34    16    11   ar
    35     6     1   ar
    36    28    23   ar
    37    10     5    1
    38    19    22    1
@<TRIPOS>MOLECULE
*****
 35 38 0 0 0
SMALL
GASTEIGER

@<TRIPOS>ATOM
      1 C         139.1977  143.0129  162.2085 C.ar    1  UNL1        0.0182
      2 C         138.5480  143.7990  163.3085 C.ar    1  UNL1        0.0014
      3 C         137.7483  143.0933  164.3631 C.ar    1  UNL1        0.0031
      4 C         137.5982  141.6015  164.3179 C.ar    1  UNL1        0.0366
      5 C         138.2479  140.8154  163.2179 C.ar    1  UNL1        0.1347
      6 C         139.0477  141.5211  162.1633 C.ar    1  UNL1        0.0151
      7 C         139.6974  140.7350  161.0633 C.3     1  UNL1        0.0528
      8 C         139.5473  139.2432  161.0180 C.3     1  UNL1        0.1200
      9 C         138.7475  138.5375  162.0727 C.3     1  UNL1        0.2250
     10 O         138.0978  139.3236  163.1727 O.3     1  UNL1       -0.4740
     11 C         141.5971  145.1298  159.0444 C.ar    1  UNL1        0.2449
     12 C         140.1567  144.7944  158.7943 C.ar    1  UNL1        0.1564
     13 N         139.3569  144.0888  159.8490 N.ar    1  UNL1       -0.2374
     14 C         139.9975  143.7185  161.1538 C.ar    1  UNL1        0.1005
     15 C         141.4380  144.0539  161.4039 C.ar    1  UNL1        0.1211
     16 N         142.2378  144.7596  160.3492 N.ar    1  UNL1       -0.2072
     17 C         141.8855  145.9042  156.5813 C.3     1  UNL1        0.2543
     18 O         142.3970  145.8355  157.9897 O.3     1  UNL1       -0.4551
     19 N         140.1970  138.4571  159.9181 N.am    1  UNL1       -0.2986
     20 C         139.7004  138.5875  158.5087 C.2     1  UNL1        0.2474
     21 O         138.5541  139.5041  158.1993 O.2     1  UNL1       -0.2701
     22 H         140.9494  137.8555  160.1212 H       1  UNL1        0.1498
     23 C         140.3501  137.8013  157.4087 C.ar    1  UNL1        0.0725
     24 C         141.8095  137.4640  157.4892 C.ar    1  UNL1        0.0074
     25 C         142.4592  136.6778  156.3893 C.ar    1  UNL1        0.0174
     26 C         141.6496  136.2291  155.2090 C.ar    1  UNL1        0.0888
     27 N         140.1903  136.5665  155.1286 N.ar    1  UNL1       -0.2455
     28 C         139.5405  137.3526  156.2285 C.ar    1  UNL1        0.1030
     29 C         142.2994  135.4429  154.1090 C.3     1  UNL1        0.1878
     30 O         142.1263  133.9542  154.0481 O.3     1  UNL1       -0.3391
     31 C         141.4142  133.2359  155.1558 C.3     1  UNL1        0.2462
     32 C         142.1606  132.2645  156.0213 C.3     1  UNL1        0.4248
     33 F         142.9070  131.2930  156.8869 F       1  UNL1       -0.1674
     34 F         141.5148  131.1216  155.2956 F       1  UNL1       -0.1674
     35 F         142.8064  133.4073  156.7471 F       1  UNL1       -0.1674
@<TRIPOS>BOND
     1    17    18    1
     2    18    11    1
     3    11    12   ar
     4    12    13   ar
     5    13    14   ar
     6    14     1    1
     7     1     2   ar
     8     2     3   ar
     9     3     4   ar
    10     4     5   ar
    11     5     6   ar
    12     6     7    1
    13     7     8    1
    14     8    19    1
    15    19    20   am
    16    20    21    2
    17    20    23    1
    18    23    24   ar
    19    24    25   ar
    20    25    26   ar
    21    26    29    1
    22    29    30    1
    23    30    31    1
    24    31    32    1
    25    32    33    1
    26    32    34    1
    27    32    35    1
    28    26    27   ar
    29    27    28   ar
    30     8     9    1
    31     9    10    1
    32    14    15   ar
    33    15    16   ar
    34    16    11   ar
    35     6     1   ar
    36    28    23   ar
    37    10     5    1
    38    19    22    1
@<TRIPOS>MOLECULE
*****
 35 38 0 0 0
SMALL
GASTEIGER

@<TRIPOS>ATOM
      1 C         142.0817  141.1208  157.9296 C.ar    1  UNL1        0.0182
      2 C         142.3471  141.0587  156.4546 C.ar    1  UNL1        0.0014
      3 C         142.8940  139.8029  155.8433 C.ar    1  UNL1        0.0031
      4 C         143.1753  138.6091  156.7069 C.ar    1  UNL1        0.0366
      5 C         142.9098  138.6712  158.1819 C.ar    1  UNL1        0.1347
      6 C         142.3630  139.9271  158.7932 C.ar    1  UNL1        0.0151
      7 C         142.0975  139.9892  160.2683 C.3     1  UNL1        0.0528
      8 C         142.3788  138.7955  161.1319 C.3     1  UNL1        0.1200
      9 C         142.9256  137.5396  160.5205 C.3     1  UNL1        0.2250
     10 O         143.1911  137.4775  159.0455 O.3     1  UNL1       -0.4740
     11 C         140.4412  144.8885  159.7639 C.ar    1  UNL1        0.2449
     12 C         139.5908  143.6546  159.6976 C.ar    1  UNL1        0.1564
     13 N         140.1376  142.3987  159.0862 N.ar    1  UNL1       -0.2374
     14 C         141.5348  142.3767  158.5410 C.ar    1  UNL1        0.1005
     15 C         142.3853  143.6105  158.6073 C.ar    1  UNL1        0.1211
     16 N         141.8385  144.8664  159.2187 N.ar    1  UNL1       -0.2072
     17 C         139.6355  146.2087  161.8513 C.3     1  UNL1        0.2543
     18 O         139.8945  146.1443  160.3753 O.3     1  UNL1       -0.4551
     19 N         142.1133  138.8576  162.6069 N.am    1  UNL1       -0.2986
     20 C         143.1889  139.3217  163.5437 C.2     1  UNL1        0.2474
     21 O         144.5301  139.7238  163.0055 O.2     1  UNL1       -0.2701
     22 H         141.2331  138.5937  162.9601 H       1  UNL1        0.1498
     23 C         142.9234  139.3838  165.0187 C.ar    1  UNL1        0.0725
     24 C         141.8652  140.3033  165.5522 C.ar    1  UNL1        0.0074
     25 C         141.5996  140.3655  167.0272 C.ar    1  UNL1        0.0174
     26 C         142.3923  139.5080  167.9687 C.ar    1  UNL1        0.0888
     27 N         143.4505  138.5885  167.4352 N.ar    1  UNL1       -0.2455
     28 C         143.7160  138.5264  165.9602 C.ar    1  UNL1        0.1030
     29 C         142.1267  139.5701  169.4437 C.3     1  UNL1        0.1878
     30 O         142.0484  140.8983  170.1364 O.3     1  UNL1       -0.3391
     31 C         140.7165  141.5525  170.3556 C.3     1  UNL1        0.2462
     32 C         140.5251  142.9990  170.0077 C.3     1  UNL1        0.4248
     33 F         140.3336  144.4454  169.6598 F       1  UNL1       -0.1674
     34 F         139.2632  143.0269  170.8182 F       1  UNL1       -0.1674
     35 F         141.7869  142.9711  169.1972 F       1  UNL1       -0.1674
@<TRIPOS>BOND
     1    17    18    1
     2    18    11    1
     3    11    12   ar
     4    12    13   ar
     5    13    14   ar
     6    14     1    1
     7     1     2   ar
     8     2     3   ar
     9     3     4   ar
    10     4     5   ar
    11     5     6   ar
    12     6     7    1
    13     7     8    1
    14     8    19    1
    15    19    20   am
    16    20    21    2
    17    20    23    1
    18    23    24   ar
    19    24    25   ar
    20    25    26   ar
    21    26    29    1
    22    29    30    1
    23    30    31    1
    24    31    32    1
    25    32    33    1
    26    32    34    1
    27    32    35    1
    28    26    27   ar
    29    27    28   ar
    30     8     9    1
    31     9    10    1
    32    14    15   ar
    33    15    16   ar
    34    16    11   ar
    35     6     1   ar
    36    28    23   ar
    37    10     5    1
    38    19    22    1
@<TRIPOS>MOLECULE
*****
 35 38 0 0 0
SMALL
GASTEIGER

@<TRIPOS>ATOM
      1 C         145.2308  140.1376  155.4489 C.ar    1  UNL1        0.0182
      2 C         146.2511  140.6227  154.4623 C.ar    1  UNL1        0.0014
      3 C         147.0709  141.8408  154.7689 C.ar    1  UNL1        0.0031
      4 C         146.8704  142.5738  156.0621 C.ar    1  UNL1        0.0366
      5 C         145.8500  142.0888  157.0487 C.ar    1  UNL1        0.1347
      6 C         145.0302  140.8706  156.7421 C.ar    1  UNL1        0.0151
      7 C         144.0097  140.3855  157.7287 C.3     1  UNL1        0.0528
      8 C         143.8091  141.1186  159.0220 C.3     1  UNL1        0.1200
      9 C         144.6290  142.3367  159.3285 C.3     1  UNL1        0.2250
     10 O         145.6494  142.8218  158.3419 O.3     1  UNL1       -0.4740
     11 C         142.7712  136.4831  154.5292 C.ar    1  UNL1        0.2449
     12 C         144.0125  136.3615  155.3624 C.ar    1  UNL1        0.1564
     13 N         144.8324  137.5797  155.6689 N.ar    1  UNL1       -0.2374
     14 C         144.4109  138.9194  155.1423 C.ar    1  UNL1        0.1005
     15 C         143.1695  139.0410  154.3091 C.ar    1  UNL1        0.1211
     16 N         142.3497  137.8230  154.0025 N.ar    1  UNL1       -0.2072
     17 C         142.3956  133.9190  154.7133 C.3     1  UNL1        0.2543
     18 O         141.9513  135.2650  154.2226 O.3     1  UNL1       -0.4551
     19 N         142.7887  140.6335  160.0086 N.am    1  UNL1       -0.2986
     20 C         143.0592  139.4038  160.8240 C.2     1  UNL1        0.2474
     21 O         144.3500  138.6593  160.6528 O.2     1  UNL1       -0.2701
     22 H         141.9415  141.1221  160.1210 H       1  UNL1        0.1498
     23 C         142.0387  138.9188  161.8106 C.ar    1  UNL1        0.0725
     24 C         142.4750  138.1615  163.0297 C.ar    1  UNL1        0.0074
     25 C         141.4546  137.6764  164.0164 C.ar    1  UNL1        0.0174
     26 C         139.9979  137.9487  163.7839 C.ar    1  UNL1        0.0888
     27 N         139.5617  138.7060  162.5648 N.ar    1  UNL1       -0.2455
     28 C         140.5821  139.1910  161.5782 C.ar    1  UNL1        0.1030
     29 C         138.9775  137.4636  164.7706 C.3     1  UNL1        0.1878
     30 O         138.3284  138.4313  165.7152 O.3     1  UNL1       -0.3391
     31 C         139.0997  139.6116  166.2269 C.3     1  UNL1        0.2462
     32 C         139.2569  139.8217  167.7038 C.3     1  UNL1        0.4248
     33 F         139.4142  140.0318  169.1807 F       1  UNL1       -0.1674
     34 F         140.5370  140.5652  167.4618 F       1  UNL1       -0.1674
     35 F         137.9768  139.0783  167.9459 F       1  UNL1       -0.1674
@<TRIPOS>BOND
     1    17    18    1
     2    18    11    1
     3    11    12   ar
     4    12    13   ar
     5    13    14   ar
     6    14     1    1
     7     1     2   ar
     8     2     3   ar
     9     3     4   ar
    10     4     5   ar
    11     5     6   ar
    12     6     7    1
    13     7     8    1
    14     8    19    1
    15    19    20   am
    16    20    21    2
    17    20    23    1
    18    23    24   ar
    19    24    25   ar
    20    25    26   ar
    21    26    29    1
    22    29    30    1
    23    30    31    1
    24    31    32    1
    25    32    33    1
    26    32    34    1
    27    32    35    1
    28    26    27   ar
    29    27    28   ar
    30     8     9    1
    31     9    10    1
    32    14    15   ar
    33    15    16   ar
    34    16    11   ar
    35     6     1   ar
    36    28    23   ar
    37    10     5    1
    38    19    22    1
@<TRIPOS>MOLECULE
*****
 35 38 0 0 0
SMALL
GASTEIGER

@<TRIPOS>ATOM
      1 C         140.2037  142.4985  165.3295 C.ar    1  UNL1        0.0182
      2 C         140.2490  142.9970  166.7435 C.ar    1  UNL1        0.0014
      3 C         140.4296  142.0287  167.8747 C.ar    1  UNL1        0.0031
      4 C         140.5649  140.5618  167.5919 C.ar    1  UNL1        0.0366
      5 C         140.5196  140.0633  166.1780 C.ar    1  UNL1        0.1347
      6 C         140.3390  141.0316  165.0468 C.ar    1  UNL1        0.0151
      7 C         140.2937  140.5330  163.6327 C.3     1  UNL1        0.0528
      8 C         140.4289  139.0662  163.3500 C.3     1  UNL1        0.1200
      9 C         140.6095  138.0978  164.4813 C.3     1  UNL1        0.2250
     10 O         140.6548  138.5964  165.8952 O.3     1  UNL1       -0.4740
     11 C         139.6620  145.4035  161.9357 C.ar    1  UNL1        0.2449
     12 C         141.0364  145.1113  162.4607 C.ar    1  UNL1        0.1564
     13 N         141.2170  144.1430  163.5920 N.ar    1  UNL1       -0.2374
     14 C         140.0232  143.4668  164.1982 C.ar    1  UNL1        0.1005
     15 C         138.6487  143.7590  163.6732 C.ar    1  UNL1        0.1211
     16 N         138.4681  144.7272  162.5420 N.ar    1  UNL1       -0.2072
     17 C         140.1210  146.0999  159.4752 C.3     1  UNL1        0.2543
     18 O         139.4814  146.3717  160.8044 O.3     1  UNL1       -0.4551
     19 N         140.3836  138.5676  161.9360 N.am    1  UNL1       -0.2986
     20 C         141.5227  138.8538  161.0030 C.2     1  UNL1        0.2474
     21 O         142.7071  139.6385  161.4839 O.2     1  UNL1       -0.2701
     22 H         139.6063  138.0525  161.6203 H       1  UNL1        0.1498
     23 C         141.4774  138.3552  159.5889 C.ar    1  UNL1        0.0725
     24 C         142.7239  137.8346  158.9369 C.ar    1  UNL1        0.0074
     25 C         142.6786  137.3360  157.5230 C.ar    1  UNL1        0.0174
     26 C         141.3868  137.3580  156.7610 C.ar    1  UNL1        0.0888
     27 N         140.1402  137.8786  157.4130 N.ar    1  UNL1       -0.2455
     28 C         140.1855  138.3772  158.8270 C.ar    1  UNL1        0.1030
     29 C         141.3414  136.8594  155.3470 C.3     1  UNL1        0.1878
     30 O         142.5305  136.1578  154.7606 O.3     1  UNL1       -0.3391
     31 C         142.5892  134.6590  154.7545 C.3     1  UNL1        0.2462
     32 C         142.6950  133.9072  156.0482 C.3     1  UNL1        0.4248
     33 F         142.8008  133.1555  157.3420 F       1  UNL1       -0.1674
     34 F         144.0378  134.5270  156.2986 F       1  UNL1       -0.1674
     35 F         141.3521  133.2875  155.7979 F       1  UNL1       -0.1674
@<TRIPOS>BOND
     1    17    18    1
     2    18    11    1
     3    11    12   ar
     4    12    13   ar
     5    13    14   ar
     6    14     1    1
     7     1     2   ar
     8     2     3   ar
     9     3     4   ar
    10     4     5   ar
    11     5     6   ar
    12     6     7    1
    13     7     8    1
    14     8    19    1
    15    19    20   am
    16    20    21    2
    17    20    23    1
    18    23    24   ar
    19    24    25   ar
    20    25    26   ar
    21    26    29    1
    22    29    30    1
    23    30    31    1
    24    31    32    1
    25    32    33    1
    26    32    34    1
    27    32    35    1
    28    26    27   ar
    29    27    28   ar
    30     8     9    1
    31     9    10    1
    32    14    15   ar
    33    15    16   ar
    34    16    11   ar
    35     6     1   ar
    36    28    23   ar
    37    10     5    1
    38    19    22    1
@<TRIPOS>MOLECULE
*****
 35 38 0 0 0
SMALL
GASTEIGER

@<TRIPOS>ATOM
      1 C         141.2343  142.9393  157.8147 C.ar    1  UNL1        0.0182
      2 C         141.1969  143.6308  156.4842 C.ar    1  UNL1        0.0014
      3 C         140.7276  145.0524  156.3909 C.ar    1  UNL1        0.0031
      4 C         140.2957  145.7825  157.6280 C.ar    1  UNL1        0.0366
      5 C         140.3332  145.0909  158.9585 C.ar    1  UNL1        0.1347
      6 C         140.8025  143.6693  159.0519 C.ar    1  UNL1        0.0151
      7 C         140.8399  142.9777  160.3824 C.3     1  UNL1        0.0528
      8 C         140.4080  143.7077  161.6196 C.3     1  UNL1        0.1200
      9 C         139.9387  145.1294  161.5262 C.3     1  UNL1        0.2250
     10 O         139.9013  145.8210  160.1956 O.3     1  UNL1       -0.4740
     11 C         142.6423  138.6743  158.0950 C.ar    1  UNL1        0.2449
     12 C         141.1814  138.9726  157.9318 C.ar    1  UNL1        0.1564
     13 N         140.7121  140.3943  157.8383 N.ar    1  UNL1       -0.2374
     14 C         141.7037  141.5176  157.9082 C.ar    1  UNL1        0.1005
     15 C         143.1646  141.2193  158.0715 C.ar    1  UNL1        0.1211
     16 N         143.6339  139.7977  158.1649 N.ar    1  UNL1       -0.2072
     17 C         142.8217  136.2924  157.0733 C.3     1  UNL1        0.2543
     18 O         143.1117  137.2528  158.1885 O.3     1  UNL1       -0.4551
     19 N         140.4454  143.0162  162.9501 N.am    1  UNL1       -0.2986
     20 C         141.7461  142.8694  163.6828 C.2     1  UNL1        0.2474
     21 O         143.0093  143.4142  163.0849 O.2     1  UNL1       -0.2701
     22 H         139.6163  142.6586  163.3425 H       1  UNL1        0.1498
     23 C         141.7835  142.1778  165.0133 C.ar    1  UNL1        0.0725
     24 C         142.8350  142.5426  166.0189 C.ar    1  UNL1        0.0074
     25 C         142.8724  141.8511  167.3494 C.ar    1  UNL1        0.0174
     26 C         141.8583  140.7948  167.6744 C.ar    1  UNL1        0.0888
     27 N         140.8067  140.4299  166.6688 N.ar    1  UNL1       -0.2455
     28 C         140.7693  141.1215  165.3383 C.ar    1  UNL1        0.1030
     29 C         141.8956  140.1032  169.0050 C.3     1  UNL1        0.1878
     30 O         142.3029  140.8617  170.2333 O.3     1  UNL1       -0.3391
     31 C         141.3244  141.7758  170.9091 C.3     1  UNL1        0.2462
     32 C         140.7781  142.9644  170.1750 C.3     1  UNL1        0.4248
     33 F         140.2317  144.1530  169.4410 F       1  UNL1       -0.1674
     34 F         139.4132  142.3422  170.1835 F       1  UNL1       -0.1674
     35 F         142.1429  143.5866  170.1666 F       1  UNL1       -0.1674
@<TRIPOS>BOND
     1    17    18    1
     2    18    11    1
     3    11    12   ar
     4    12    13   ar
     5    13    14   ar
     6    14     1    1
     7     1     2   ar
     8     2     3   ar
     9     3     4   ar
    10     4     5   ar
    11     5     6   ar
    12     6     7    1
    13     7     8    1
    14     8    19    1
    15    19    20   am
    16    20    21    2
    17    20    23    1
    18    23    24   ar
    19    24    25   ar
    20    25    26   ar
    21    26    29    1
    22    29    30    1
    23    30    31    1
    24    31    32    1
    25    32    33    1
    26    32    34    1
    27    32    35    1
    28    26    27   ar
    29    27    28   ar
    30     8     9    1
    31     9    10    1
    32    14    15   ar
    33    15    16   ar
    34    16    11   ar
    35     6     1   ar
    36    28    23   ar
    37    10     5    1
    38    19    22    1
