@<TRIPOS>MOLECULE
*****
 39 42 0 0 0
SMALL
GASTEIGER

@<TRIPOS>ATOM
      1 C         140.5143  140.9845  164.5073 C.2     1  UNL1        0.1397
      2 C         140.7564  139.8755  165.4878 C.2     1  UNL1        0.1353
      3 N         140.7318  140.1579  166.9608 N.pl3   1  UNL1       -0.1998
      4 C         140.4651  141.5494  167.4533 C.2     1  UNL1        0.3442
      5 N         140.2230  142.6585  166.4728 N.2     1  UNL1       -0.0580
      6 C         140.2476  142.3760  164.9998 C.3     1  UNL1        0.2692
      7 H         140.8907  139.4300  167.6043 H       1  UNL1        0.2983
      8 C         140.0055  143.4851  164.0193 C.ar    1  UNL1        0.0371
      9 C         141.1609  144.2767  163.4821 C.ar    1  UNL1        0.0030
     10 C         140.9188  145.3858  162.5016 C.ar    1  UNL1        0.0295
     11 C         139.5214  145.7033  162.0583 C.ar    1  UNL1        0.1406
     12 F         139.2794  146.8124  161.0779 F       1  UNL1       -0.2042
     13 C         138.3661  144.9117  162.5955 C.ar    1  UNL1        0.0362
     14 C         138.6082  143.8026  163.5761 C.ar    1  UNL1        0.0372
     15 BR        137.4528  143.0110  164.1133 Br      1  UNL1       -0.0491
     16 C         140.4405  141.8319  168.9262 C.ar    1  UNL1        0.1931
     17 N         139.9619  143.0977  169.5734 N.ar    1  UNL1       -0.2297
     18 C         140.1158  142.9463  171.0578 C.ar    1  UNL1        0.1067
     19 C         140.6894  141.5869  171.3280 C.ar    1  UNL1        0.0577
     20 S         140.8900  140.8982  170.0107 S.2     1  UNL1       -0.0586
     21 C         140.5390  140.7020  163.0344 C.2     1  UNL1        0.3447
     22 O         141.8470  140.6532  162.3018 O.2     1  UNL1       -0.2450
     23 O         139.2556  140.4684  162.2940 O.3     1  UNL1       -0.4455
     24 C         138.2333  138.0810  162.2203 C.3     1  UNL1        0.0513
     25 C         139.0315  139.1729  161.5717 C.3     1  UNL1        0.2089
     26 C         141.0231  138.4839  164.9954 C.3     0  ACE0        0.1371
     27 N         142.3859  138.1163  164.4877 N.3     1  UNL1       -0.2872
     28 H         142.4622  138.4990  163.5453 H       1  UNL1        0.1240
     29 CA        143.6091  138.5584  165.2350 C.3     1  UNL1        0.0958
     30 C         143.7947  138.1638  166.6702 C.2     1  UNL1        0.0649
     31 O         144.6432  136.9767  167.0179 O.co2   1  UNL1       -0.5478
     32 OXT       143.1318  138.9562  167.7577 O.co2   1  UNL1       -0.5478
     33 CB        144.6466  139.3952  164.5470 C.3     1  UNL1        0.0478
     34 CG        144.5097  140.8886  164.5218 C.ar    1  UNL1       -0.0205
     35 CD1       144.9987  141.6668  163.3363 C.ar    1  UNL1       -0.0042
     36 CE1       144.8618  143.1603  163.3111 C.ar    1  UNL1       -0.0003
     37 CZ        144.2358  143.8757  164.4714 C.ar    1  UNL1       -0.0000
     38 CE2       143.7468  143.0977  165.6569 C.ar    1  UNL1       -0.0003
     39 CD2       143.8837  141.6041  165.6821 C.ar    1  UNL1       -0.0042
@<TRIPOS>UNITY_ATOM_ATTR
31 1
charge -1
@<TRIPOS>BOND
     1    24    25    1
     2    25    23    1
     3    23    21    1
     4    21    22    2
     5    21     1    1
     6     1     2    2
     7     2    26    1
     8    26    27    1
     9    27    29    1
    10    29    33    1
    11    33    34    1
    12    34    35   ar
    13    35    36   ar
    14    36    37   ar
    15    37    38   ar
    16    38    39   ar
    17    29    30    1
    18    30    31   ar
    19    30    32   ar
    20     2     3    1
    21     3     4    1
    22     4    16    1
    23    16    17   ar
    24    17    18   ar
    25    18    19   ar
    26    19    20   ar
    27     4     5    2
    28     5     6    1
    29     6     8    1
    30     8     9   ar
    31     9    10   ar
    32    10    11   ar
    33    11    12    1
    34    11    13   ar
    35    13    14   ar
    36    14    15    1
    37     6     1    1
    38    14     8   ar
    39    39    34   ar
    40    20    16   ar
    41    27    28    1
    42     3     7    1
@<TRIPOS>MOLECULE
*****
 39 42 0 0 0
SMALL
GASTEIGER

@<TRIPOS>ATOM
      1 C         140.5274  141.7770  164.1446 C.2     1  UNL1        0.1397
      2 C         139.6066  141.5799  165.3121 C.2     1  UNL1        0.1353
      3 N         140.1294  141.7177  166.7113 N.pl3   1  UNL1       -0.1998
      4 C         141.5730  142.0525  166.9429 C.2     1  UNL1        0.3442
      5 N         142.4938  142.2496  165.7753 N.2     1  UNL1       -0.0580
      6 C         141.9710  142.1119  164.3762 C.3     1  UNL1        0.2692
      7 H         139.5250  141.5883  167.4776 H       1  UNL1        0.2983
      8 C         142.8919  142.3090  163.2086 C.ar    1  UNL1        0.0371
      9 C         143.3190  141.1316  162.3831 C.ar    1  UNL1        0.0030
     10 C         144.2398  141.3287  161.2156 C.ar    1  UNL1        0.0295
     11 C         144.7337  142.7032  160.8735 C.ar    1  UNL1        0.1406
     12 F         145.6545  142.9003  159.7060 F       1  UNL1       -0.2042
     13 C         144.3066  143.8806  161.6990 C.ar    1  UNL1        0.0362
     14 C         143.3857  143.6835  162.8666 C.ar    1  UNL1        0.0372
     15 BR        142.9586  144.8608  163.6921 Br      1  UNL1       -0.0491
     16 C         142.0959  142.1903  168.3421 C.ar    1  UNL1        0.1931
     17 N         143.4926  142.5788  168.7271 N.ar    1  UNL1       -0.2297
     18 C         143.5737  142.5923  170.2249 C.ar    1  UNL1        0.1067
     19 C         142.2272  142.2122  170.7655 C.ar    1  UNL1        0.0577
     20 S         141.3138  141.9638  169.6018 S.2     1  UNL1       -0.0586
     21 C         140.0045  141.6392  162.7454 C.2     1  UNL1        0.3447
     22 O         139.8696  140.2800  162.1256 O.2     1  UNL1       -0.2450
     23 O         139.6166  142.8607  161.9660 O.3     1  UNL1       -0.4455
     24 C         137.8590  144.4216  163.0727 C.3     1  UNL1        0.0513
     25 C         139.2791  144.1332  162.6849 C.3     1  UNL1        0.2089
     26 C         138.1628  141.2450  165.0805 C.3     0  ACE0        0.1371
     27 N         137.7628  139.8371  164.7525 N.3     1  UNL1       -0.2872
     28 H         138.0871  139.6523  163.8033 H       1  UNL1        0.1240
     29 CA        138.2478  138.7017  165.6045 C.3     1  UNL1        0.0958
     30 C         137.9349  138.6779  167.0714 C.2     1  UNL1        0.0649
     31 O         138.7731  139.4708  168.0300 O.co2   1  UNL1       -0.5478
     32 OXT       136.7839  137.8613  167.5796 O.co2   1  UNL1       -0.5478
     33 CB        139.0456  137.5903  164.9897 C.3     1  UNL1        0.0478
     34 CG        140.4633  137.8317  164.5633 C.ar    1  UNL1       -0.0205
     35 CD1       141.4397  138.4485  165.5205 C.ar    1  UNL1       -0.0042
     36 CE1       142.8574  138.6900  165.0940 C.ar    1  UNL1       -0.0003
     37 CZ        143.2987  138.3146  163.7104 C.ar    1  UNL1       -0.0000
     38 CE2       142.3223  137.6978  162.7533 C.ar    1  UNL1       -0.0003
     39 CD2       140.9046  137.4563  163.1797 C.ar    1  UNL1       -0.0042
@<TRIPOS>UNITY_ATOM_ATTR
31 1
charge -1
@<TRIPOS>BOND
     1    24    25    1
     2    25    23    1
     3    23    21    1
     4    21    22    2
     5    21     1    1
     6     1     2    2
     7     2    26    1
     8    26    27    1
     9    27    29    1
    10    29    33    1
    11    33    34    1
    12    34    35   ar
    13    35    36   ar
    14    36    37   ar
    15    37    38   ar
    16    38    39   ar
    17    29    30    1
    18    30    31   ar
    19    30    32   ar
    20     2     3    1
    21     3     4    1
    22     4    16    1
    23    16    17   ar
    24    17    18   ar
    25    18    19   ar
    26    19    20   ar
    27     4     5    2
    28     5     6    1
    29     6     8    1
    30     8     9   ar
    31     9    10   ar
    32    10    11   ar
    33    11    12    1
    34    11    13   ar
    35    13    14   ar
    36    14    15    1
    37     6     1    1
    38    14     8   ar
    39    39    34   ar
    40    20    16   ar
    41    27    28    1
    42     3     7    1
@<TRIPOS>MOLECULE
*****
 39 42 0 0 0
SMALL
GASTEIGER

@<TRIPOS>ATOM
      1 C         141.7841  142.0503  163.6675 C.2     1  UNL1        0.1397
      2 C         141.4378  143.0601  164.7211 C.2     1  UNL1        0.1353
      3 N         141.2530  142.6253  166.1448 N.pl3   1  UNL1       -0.1998
      4 C         141.4146  141.1807  166.5148 C.2     1  UNL1        0.3442
      5 N         141.7610  140.1709  165.4611 N.2     1  UNL1       -0.0580
      6 C         141.9458  140.6057  164.0375 C.3     1  UNL1        0.2692
      7 H         141.0257  143.2881  166.8363 H       1  UNL1        0.2983
      8 C         142.2922  139.5957  162.9838 C.ar    1  UNL1        0.0371
      9 C         141.2097  138.9919  162.1390 C.ar    1  UNL1        0.0030
     10 C         141.5560  137.9821  161.0853 C.ar    1  UNL1        0.0295
     11 C         142.9849  137.5760  160.8765 C.ar    1  UNL1        0.1406
     12 F         143.3312  136.5661  159.8229 F       1  UNL1       -0.2042
     13 C         144.0673  138.1797  161.7213 C.ar    1  UNL1        0.0362
     14 C         143.7209  139.1897  162.7750 C.ar    1  UNL1        0.0372
     15 BR        144.8034  139.7935  163.6198 Br      1  UNL1       -0.0491
     16 C         141.2299  140.7459  167.9385 C.ar    1  UNL1        0.1931
     17 N         139.9184  140.4787  168.6156 N.ar    1  UNL1       -0.2297
     18 C         140.2022  140.0697  170.0306 C.ar    1  UNL1        0.1067
     19 C         141.6890  140.0841  170.2280 C.ar    1  UNL1        0.0577
     20 S         142.3242  140.5021  168.9350 S.2     1  UNL1       -0.0586
     21 C         141.9689  142.4850  162.2438 C.2     1  UNL1        0.3447
     22 O         140.8642  142.2847  161.2490 O.2     1  UNL1       -0.2450
     23 O         143.2583  143.1202  161.8149 O.3     1  UNL1       -0.4455
     24 C         143.7745  141.4162  159.9227 C.3     1  UNL1        0.0513
     25 C         143.8317  142.8144  160.4629 C.3     1  UNL1        0.2089
     26 C         141.2761  144.5048  164.3511 C.3     0  ACE0        0.1371
     27 N         139.9104  145.1247  164.3275 N.3     1  UNL1       -0.2872
     28 H         140.0418  146.1306  164.4336 H       1  UNL1        0.1240
     29 CA        139.0177  144.9276  163.1383 C.3     1  UNL1        0.0958
     30 C         139.3747  145.5503  161.8212 C.2     1  UNL1        0.0649
     31 O         139.2955  144.7390  160.5619 O.co2   1  UNL1       -0.5478
     32 OXT       139.8108  146.9843  161.7632 O.co2   1  UNL1       -0.5478
     33 CB        137.7681  144.1078  163.2661 C.3     1  UNL1        0.0478
     34 CG        137.8587  142.6145  163.3755 C.ar    1  UNL1       -0.0205
     35 CD1       137.7245  141.7631  162.1478 C.ar    1  UNL1       -0.0042
     36 CE1       137.8151  140.2699  162.2571 C.ar    1  UNL1       -0.0003
     37 CZ        138.0400  139.6280  163.5941 C.ar    1  UNL1       -0.0000
     38 CE2       138.1742  140.4794  164.8217 C.ar    1  UNL1       -0.0003
     39 CD2       138.0836  141.9727  164.7124 C.ar    1  UNL1       -0.0042
@<TRIPOS>UNITY_ATOM_ATTR
31 1
charge -1
@<TRIPOS>BOND
     1    24    25    1
     2    25    23    1
     3    23    21    1
     4    21    22    2
     5    21     1    1
     6     1     2    2
     7     2    26    1
     8    26    27    1
     9    27    29    1
    10    29    33    1
    11    33    34    1
    12    34    35   ar
    13    35    36   ar
    14    36    37   ar
    15    37    38   ar
    16    38    39   ar
    17    29    30    1
    18    30    31   ar
    19    30    32   ar
    20     2     3    1
    21     3     4    1
    22     4    16    1
    23    16    17   ar
    24    17    18   ar
    25    18    19   ar
    26    19    20   ar
    27     4     5    2
    28     5     6    1
    29     6     8    1
    30     8     9   ar
    31     9    10   ar
    32    10    11   ar
    33    11    12    1
    34    11    13   ar
    35    13    14   ar
    36    14    15    1
    37     6     1    1
    38    14     8   ar
    39    39    34   ar
    40    20    16   ar
    41    27    28    1
    42     3     7    1
@<TRIPOS>MOLECULE
*****
 39 42 0 0 0
SMALL
GASTEIGER

@<TRIPOS>ATOM
      1 C         140.3276  140.4021  163.2282 C.2     1  UNL1        0.1397
      2 C         140.5219  139.0265  163.7938 C.2     1  UNL1        0.1353
      3 N         140.8106  138.8502  165.2551 N.pl3   1  UNL1       -0.1998
      4 C         140.9049  140.0496  166.1509 C.2     1  UNL1        0.3442
      5 N         140.7106  141.4252  165.5854 N.2     1  UNL1       -0.0580
      6 C         140.4220  141.6014  164.1240 C.3     1  UNL1        0.2692
      7 H         140.9381  137.9474  165.6263 H       1  UNL1        0.2983
      8 C         140.2277  142.9771  163.5584 C.ar    1  UNL1        0.0371
      9 C         141.4160  143.7885  163.1345 C.ar    1  UNL1        0.0030
     10 C         141.2217  145.1641  162.5690 C.ar    1  UNL1        0.0295
     11 C         139.8391  145.7285  162.4273 C.ar    1  UNL1        0.1406
     12 F         139.6449  147.1041  161.8618 F       1  UNL1       -0.2042
     13 C         138.6508  144.9171  162.8512 C.ar    1  UNL1        0.0362
     14 C         138.8451  143.5414  163.4168 C.ar    1  UNL1        0.0372
     15 BR        137.6568  142.7301  163.8406 Br      1  UNL1       -0.0491
     16 C         141.1936  139.8734  167.6123 C.ar    1  UNL1        0.1931
     17 N         140.1795  139.8728  168.7176 N.ar    1  UNL1       -0.2297
     18 C         140.9062  139.6659  170.0134 C.ar    1  UNL1        0.1067
     19 C         142.3694  139.5386  169.7090 C.ar    1  UNL1        0.0577
     20 S         142.5470  139.6669  168.2251 S.2     1  UNL1       -0.0586
     21 C         140.0389  140.5783  161.7668 C.2     1  UNL1        0.3447
     22 O         138.6705  140.2779  161.2311 O.2     1  UNL1       -0.2450
     23 O         141.1187  141.0548  160.8412 O.3     1  UNL1       -0.4455
     24 C         141.9063  143.1471  159.5174 C.3     1  UNL1        0.0513
     25 C         140.8353  142.1547  159.8614 C.3     1  UNL1        0.2089
     26 C         140.4275  137.8270  162.8979 C.3     0  ACE0        0.1371
     27 N         141.6753  137.1243  162.4515 N.3     1  UNL1       -0.2872
     28 H         141.3782  136.3054  161.9209 H       1  UNL1        0.1240
     29 CA        142.6811  137.8470  161.6052 C.3     1  UNL1        0.0958
     30 C         142.3700  138.1572  160.1710 C.2     1  UNL1        0.0649
     31 O         143.4688  138.5725  159.2381 O.co2   1  UNL1       -0.5478
     32 OXT       140.9602  138.0522  159.6697 O.co2   1  UNL1       -0.5478
     33 CB        143.9979  138.2595  162.1932 C.3     1  UNL1        0.0478
     34 CG        144.1745  139.6455  162.7388 C.ar    1  UNL1       -0.0205
     35 CD1       144.0723  139.8890  164.2154 C.ar    1  UNL1       -0.0042
     36 CE1       144.2489  141.2751  164.7609 C.ar    1  UNL1       -0.0003
     37 CZ        144.5275  142.4177  163.8299 C.ar    1  UNL1       -0.0000
     38 CE2       144.6296  142.1743  162.3534 C.ar    1  UNL1       -0.0003
     39 CD2       144.4531  140.7881  161.8077 C.ar    1  UNL1       -0.0042
@<TRIPOS>UNITY_ATOM_ATTR
31 1
charge -1
@<TRIPOS>BOND
     1    24    25    1
     2    25    23    1
     3    23    21    1
     4    21    22    2
     5    21     1    1
     6     1     2    2
     7     2    26    1
     8    26    27    1
     9    27    29    1
    10    29    33    1
    11    33    34    1
    12    34    35   ar
    13    35    36   ar
    14    36    37   ar
    15    37    38   ar
    16    38    39   ar
    17    29    30    1
    18    30    31   ar
    19    30    32   ar
    20     2     3    1
    21     3     4    1
    22     4    16    1
    23    16    17   ar
    24    17    18   ar
    25    18    19   ar
    26    19    20   ar
    27     4     5    2
    28     5     6    1
    29     6     8    1
    30     8     9   ar
    31     9    10   ar
    32    10    11   ar
    33    11    12    1
    34    11    13   ar
    35    13    14   ar
    36    14    15    1
    37     6     1    1
    38    14     8   ar
    39    39    34   ar
    40    20    16   ar
    41    27    28    1
    42     3     7    1
@<TRIPOS>MOLECULE
*****
 39 42 0 0 0
SMALL
GASTEIGER

@<TRIPOS>ATOM
      1 C         141.6508  140.9955  162.7431 C.2     1  UNL1        0.1397
      2 C         142.3034  141.7725  161.6384 C.2     1  UNL1        0.1353
      3 N         141.5172  142.1426  160.4158 N.pl3   1  UNL1       -0.1998
      4 C         140.0783  141.7356  160.2978 C.2     1  UNL1        0.3442
      5 N         139.4257  140.9586  161.4024 N.2     1  UNL1       -0.0580
      6 C         140.2119  140.5886  162.6251 C.3     1  UNL1        0.2692
      7 H         141.9455  142.6526  159.6908 H       1  UNL1        0.2983
      8 C         139.5592  139.8115  163.7297 C.ar    1  UNL1        0.0371
      9 C         138.7814  140.5287  164.7931 C.ar    1  UNL1        0.0030
     10 C         138.1287  139.7517  165.8977 C.ar    1  UNL1        0.0295
     11 C         138.2538  138.2574  165.9390 C.ar    1  UNL1        0.1406
     12 F         137.6012  137.4804  167.0437 F       1  UNL1       -0.2042
     13 C         139.0316  137.5402  164.8757 C.ar    1  UNL1        0.0362
     14 C         139.6843  138.3173  163.7710 C.ar    1  UNL1        0.0372
     15 BR        140.4621  137.6001  162.7077 Br      1  UNL1       -0.0491
     16 C         139.2920  142.1057  159.0751 C.ar    1  UNL1        0.1931
     17 N         138.0824  141.3879  158.5540 N.ar    1  UNL1       -0.2297
     18 C         137.6201  142.0971  157.3158 C.ar    1  UNL1        0.1067
     19 C         138.5441  143.2533  157.0716 C.ar    1  UNL1        0.0577
     20 S         139.5773  143.2586  158.1589 S.2     1  UNL1       -0.0586
     21 C         142.4370  140.6255  163.9657 C.2     1  UNL1        0.3447
     22 O         142.2788  141.4200  165.2281 O.2     1  UNL1       -0.2450
     23 O         143.3815  139.4608  163.9260 O.3     1  UNL1       -0.4455
     24 C         143.5385  138.2204  166.2034 C.3     1  UNL1        0.0513
     25 C         144.1632  139.0870  165.1504 C.3     1  UNL1        0.2089
     26 C         143.7424  142.1796  161.7564 C.3     0  ACE0        0.1371
     27 N         144.0949  143.5856  162.1420 N.3     1  UNL1       -0.2872
     28 H         143.5063  144.2012  161.5807 H       1  UNL1        0.1240
     29 CA        143.9517  144.0308  163.5673 C.3     1  UNL1        0.0958
     30 C         144.8233  143.4321  164.6312 C.2     1  UNL1        0.0649
     31 O         144.8960  144.0688  165.9874 O.co2   1  UNL1       -0.5478
     32 OXT       145.6222  142.1966  164.3388 O.co2   1  UNL1       -0.5478
     33 CB        142.9370  145.0747  163.9286 C.3     1  UNL1        0.0478
     34 CG        141.4892  144.8582  163.6015 C.ar    1  UNL1       -0.0205
     35 CD1       140.9587  145.2467  162.2532 C.ar    1  UNL1       -0.0042
     36 CE1       139.5110  145.0303  161.9261 C.ar    1  UNL1       -0.0003
     37 CZ        138.5936  144.4253  162.9471 C.ar    1  UNL1       -0.0000
     38 CE2       139.1241  144.0368  164.2953 C.ar    1  UNL1       -0.0003
     39 CD2       140.5719  144.2532  164.6225 C.ar    1  UNL1       -0.0042
@<TRIPOS>UNITY_ATOM_ATTR
31 1
charge -1
@<TRIPOS>BOND
     1    24    25    1
     2    25    23    1
     3    23    21    1
     4    21    22    2
     5    21     1    1
     6     1     2    2
     7     2    26    1
     8    26    27    1
     9    27    29    1
    10    29    33    1
    11    33    34    1
    12    34    35   ar
    13    35    36   ar
    14    36    37   ar
    15    37    38   ar
    16    38    39   ar
    17    29    30    1
    18    30    31   ar
    19    30    32   ar
    20     2     3    1
    21     3     4    1
    22     4    16    1
    23    16    17   ar
    24    17    18   ar
    25    18    19   ar
    26    19    20   ar
    27     4     5    2
    28     5     6    1
    29     6     8    1
    30     8     9   ar
    31     9    10   ar
    32    10    11   ar
    33    11    12    1
    34    11    13   ar
    35    13    14   ar
    36    14    15    1
    37     6     1    1
    38    14     8   ar
    39    39    34   ar
    40    20    16   ar
    41    27    28    1
    42     3     7    1
@<TRIPOS>MOLECULE
*****
 39 42 0 0 0
SMALL
GASTEIGER

@<TRIPOS>ATOM
      1 C         140.8975  140.1161  163.8148 C.2     1  UNL1        0.1397
      2 C         140.6189  139.7498  162.3872 C.2     1  UNL1        0.1353
      3 N         140.6254  140.8098  161.3259 N.pl3   1  UNL1       -0.1998
      4 C         140.9104  142.2362  161.6923 C.2     1  UNL1        0.3442
      5 N         141.1889  142.6025  163.1199 N.2     1  UNL1       -0.0580
      6 C         141.1824  141.5424  164.1812 C.3     1  UNL1        0.2692
      7 H         140.4426  140.5694  160.3889 H       1  UNL1        0.2983
      8 C         141.4610  141.9088  165.6089 C.ar    1  UNL1        0.0371
      9 C         142.7991  141.6036  166.2141 C.ar    1  UNL1        0.0030
     10 C         143.0777  141.9699  167.6418 C.ar    1  UNL1        0.0295
     11 C         142.0181  142.6414  168.4642 C.ar    1  UNL1        0.1406
     12 F         142.2967  143.0078  169.8919 F       1  UNL1       -0.2042
     13 C         140.6800  142.9467  167.8590 C.ar    1  UNL1        0.0362
     14 C         140.4014  142.5803  166.4313 C.ar    1  UNL1        0.0372
     15 BR        139.0633  142.8855  165.8261 Br      1  UNL1       -0.0491
     16 C         140.9169  143.2962  160.6310 C.ar    1  UNL1        0.1931
     17 N         139.8373  144.3093  160.3902 N.ar    1  UNL1       -0.2297
     18 C         140.2573  145.1685  159.2346 C.ar    1  UNL1        0.1067
     19 C         141.5965  144.6864  158.7612 C.ar    1  UNL1        0.0577
     20 S         142.0041  143.5293  159.6243 S.2     1  UNL1       -0.0586
     21 C         140.8910  139.0560  164.8761 C.2     1  UNL1        0.3447
     22 O         141.8658  137.9182  164.8056 O.2     1  UNL1       -0.2450
     23 O         139.9096  139.1338  166.0078 O.3     1  UNL1       -0.4455
     24 C         137.6009  138.3659  166.9189 C.3     1  UNL1        0.0513
     25 C         138.4662  138.8001  165.7731 C.3     1  UNL1        0.2089
     26 C         140.3339  138.3234  162.0207 C.3     0  ACE0        0.1371
     27 N         141.4663  137.3794  161.7443 N.3     1  UNL1       -0.2872
     28 H         141.0713  136.5851  161.2408 H       1  UNL1        0.1240
     29 CA        142.6548  137.8442  160.9559 C.3     1  UNL1        0.0958
     30 C         142.5173  138.1290  159.4896 C.2     1  UNL1        0.0649
     31 O         141.8532  139.3931  159.0301 O.co2   1  UNL1       -0.5478
     32 OXT       143.0438  137.1497  158.4827 O.co2   1  UNL1       -0.5478
     33 CB        143.9807  138.0242  161.6337 C.3     1  UNL1        0.0478
     34 CG        144.3573  139.3603  162.2019 C.ar    1  UNL1       -0.0205
     35 CD1       144.8552  139.4618  163.6133 C.ar    1  UNL1       -0.0042
     36 CE1       145.2317  140.7979  164.1815 C.ar    1  UNL1       -0.0003
     37 CZ        145.1104  142.0326  163.3384 C.ar    1  UNL1       -0.0000
     38 CE2       144.6124  141.9312  161.9271 C.ar    1  UNL1       -0.0003
     39 CD2       144.2359  140.5950  161.3589 C.ar    1  UNL1       -0.0042
@<TRIPOS>UNITY_ATOM_ATTR
31 1
charge -1
@<TRIPOS>BOND
     1    24    25    1
     2    25    23    1
     3    23    21    1
     4    21    22    2
     5    21     1    1
     6     1     2    2
     7     2    26    1
     8    26    27    1
     9    27    29    1
    10    29    33    1
    11    33    34    1
    12    34    35   ar
    13    35    36   ar
    14    36    37   ar
    15    37    38   ar
    16    38    39   ar
    17    29    30    1
    18    30    31   ar
    19    30    32   ar
    20     2     3    1
    21     3     4    1
    22     4    16    1
    23    16    17   ar
    24    17    18   ar
    25    18    19   ar
    26    19    20   ar
    27     4     5    2
    28     5     6    1
    29     6     8    1
    30     8     9   ar
    31     9    10   ar
    32    10    11   ar
    33    11    12    1
    34    11    13   ar
    35    13    14   ar
    36    14    15    1
    37     6     1    1
    38    14     8   ar
    39    39    34   ar
    40    20    16   ar
    41    27    28    1
    42     3     7    1
@<TRIPOS>MOLECULE
*****
 39 42 0 0 0
SMALL
GASTEIGER

@<TRIPOS>ATOM
      1 C         141.1011  141.3324  162.2209 C.2     1  UNL1        0.1397
      2 C         141.5508  142.1452  161.0432 C.2     1  UNL1        0.1353
      3 N         140.8351  142.0234  159.7306 N.pl3   1  UNL1       -0.1998
      4 C         139.6697  141.0888  159.5957 C.2     1  UNL1        0.3442
      5 N         139.2200  140.2760  160.7734 N.2     1  UNL1       -0.0580
      6 C         139.9357  140.3978  162.0860 C.3     1  UNL1        0.2692
      7 H         141.1303  142.5569  158.9576 H       1  UNL1        0.2983
      8 C         139.4859  139.5850  163.2638 C.ar    1  UNL1        0.0371
      9 C         138.4576  140.1361  164.2067 C.ar    1  UNL1        0.0030
     10 C         138.0079  139.3233  165.3844 C.ar    1  UNL1        0.0295
     11 C         138.5863  137.9593  165.6193 C.ar    1  UNL1        0.1406
     12 F         138.1365  137.1466  166.7970 F       1  UNL1       -0.2042
     13 C         139.6146  137.4082  164.6764 C.ar    1  UNL1        0.0362
     14 C         140.0643  138.2211  163.4986 C.ar    1  UNL1        0.0372
     15 BR        141.0926  137.6700  162.5557 Br      1  UNL1       -0.0491
     16 C         138.9540  140.9669  158.2831 C.ar    1  UNL1        0.1931
     17 N         139.1022  139.8448  157.2989 N.ar    1  UNL1       -0.2297
     18 C         138.2042  140.1301  156.1317 C.ar    1  UNL1        0.1067
     19 C         137.5010  141.4288  156.3946 C.ar    1  UNL1        0.0577
     20 S         137.9644  141.9459  157.7242 S.2     1  UNL1       -0.0586
     21 C         141.8168  141.4543  163.5335 C.2     1  UNL1        0.3447
     22 O         143.0643  140.6600  163.7841 O.2     1  UNL1       -0.2450
     23 O         141.2850  142.3704  164.5955 O.3     1  UNL1       -0.4455
     24 C         140.3991  141.7562  166.9594 C.3     1  UNL1        0.0513
     25 C         141.5437  142.0712  166.0424 C.3     1  UNL1        0.2089
     26 C         142.7163  143.0799  161.1780 C.3     0  ACE0        0.1371
     27 N         142.4868  144.5176  161.5390 N.3     1  UNL1       -0.2872
     28 H         143.3106  145.0338  161.2302 H       1  UNL1        0.1240
     29 CA        141.2919  145.2453  160.9978 C.3     1  UNL1        0.0958
     30 C         141.0630  145.3142  159.5170 C.2     1  UNL1        0.0649
     31 O         142.1377  145.8466  158.6160 O.co2   1  UNL1       -0.5478
     32 OXT       139.7595  144.8509  158.9372 O.co2   1  UNL1       -0.5478
     33 CB        140.3259  145.9039  161.9375 C.3     1  UNL1        0.0478
     34 CG        139.4401  145.0661  162.8112 C.ar    1  UNL1       -0.0205
     35 CD1       139.4619  145.2523  164.2995 C.ar    1  UNL1       -0.0042
     36 CE1       138.5760  144.4145  165.1732 C.ar    1  UNL1       -0.0003
     37 CZ        137.6683  143.3906  164.5587 C.ar    1  UNL1       -0.0000
     38 CE2       137.6465  143.2044  163.0705 C.ar    1  UNL1       -0.0003
     39 CD2       138.5324  144.0422  162.1967 C.ar    1  UNL1       -0.0042
@<TRIPOS>UNITY_ATOM_ATTR
31 1
charge -1
@<TRIPOS>BOND
     1    24    25    1
     2    25    23    1
     3    23    21    1
     4    21    22    2
     5    21     1    1
     6     1     2    2
     7     2    26    1
     8    26    27    1
     9    27    29    1
    10    29    33    1
    11    33    34    1
    12    34    35   ar
    13    35    36   ar
    14    36    37   ar
    15    37    38   ar
    16    38    39   ar
    17    29    30    1
    18    30    31   ar
    19    30    32   ar
    20     2     3    1
    21     3     4    1
    22     4    16    1
    23    16    17   ar
    24    17    18   ar
    25    18    19   ar
    26    19    20   ar
    27     4     5    2
    28     5     6    1
    29     6     8    1
    30     8     9   ar
    31     9    10   ar
    32    10    11   ar
    33    11    12    1
    34    11    13   ar
    35    13    14   ar
    36    14    15    1
    37     6     1    1
    38    14     8   ar
    39    39    34   ar
    40    20    16   ar
    41    27    28    1
    42     3     7    1
@<TRIPOS>MOLECULE
*****
 39 42 0 0 0
SMALL
GASTEIGER

@<TRIPOS>ATOM
      1 C         140.3413  139.5127  164.1751 C.2     1  UNL1        0.1397
      2 C         140.3165  139.6250  162.6795 C.2     1  UNL1        0.1353
      3 N         140.2617  140.9757  162.0296 N.pl3   1  UNL1       -0.1998
      4 C         140.2318  142.2143  162.8752 C.2     1  UNL1        0.3442
      5 N         140.2567  142.1020  164.3707 N.2     1  UNL1       -0.0580
      6 C         140.3115  140.7513  165.0207 C.3     1  UNL1        0.2692
      7 H         140.2454  141.0494  161.0480 H       1  UNL1        0.2983
      8 C         140.3364  140.6391  166.5163 C.ar    1  UNL1        0.0371
      9 C         139.1616  140.0560  167.2443 C.ar    1  UNL1        0.0030
     10 C         139.1864  139.9438  168.7399 C.ar    1  UNL1        0.0295
     11 C         140.3861  140.4147  169.5075 C.ar    1  UNL1        0.1406
     12 F         140.4109  140.3025  171.0031 F       1  UNL1       -0.2042
     13 C         141.5609  140.9977  168.7795 C.ar    1  UNL1        0.0362
     14 C         141.5360  141.1099  167.2839 C.ar    1  UNL1        0.0372
     15 BR        142.7108  141.6929  166.5559 Br      1  UNL1       -0.0491
     16 C         140.1771  143.5650  162.2252 C.ar    1  UNL1        0.1931
     17 N         139.8897  144.8650  162.9162 N.ar    1  UNL1       -0.2297
     18 C         139.9351  145.9564  161.8882 C.ar    1  UNL1        0.1067
     19 C         140.2506  145.3310  160.5618 C.ar    1  UNL1        0.0577
     20 S         140.4001  143.8530  160.7701 S.2     1  UNL1       -0.0586
     21 C         140.3961  138.1620  164.8250 C.2     1  UNL1        0.3447
     22 O         139.1331  137.5056  165.2982 O.2     1  UNL1       -0.2450
     23 O         141.7138  137.4675  165.0017 O.3     1  UNL1       -0.4455
     24 C         143.7498  138.0904  166.4907 C.3     1  UNL1        0.0513
     25 C         142.9604  138.2706  165.2279 C.3     1  UNL1        0.2089
     26 C         140.3463  138.3864  161.8338 C.3     0  ACE0        0.1371
     27 N         141.6262  137.6219  161.6683 N.3     1  UNL1       -0.2872
     28 H         141.3777  136.7124  161.2792 H       1  UNL1        0.1240
     29 CA        142.7245  138.1750  160.8093 C.3     1  UNL1        0.0958
     30 C         142.5116  138.3401  159.3337 C.2     1  UNL1        0.0649
     31 O         141.7366  139.5149  158.8146 O.co2   1  UNL1       -0.5478
     32 OXT       143.0737  137.3306  158.3773 O.co2   1  UNL1       -0.5478
     33 CB        144.0357  138.5630  161.4260 C.3     1  UNL1        0.0478
     34 CG        144.2428  139.9601  161.9308 C.ar    1  UNL1       -0.0205
     35 CD1       144.9804  140.1915  163.2164 C.ar    1  UNL1       -0.0042
     36 CE1       145.1875  141.5887  163.7212 C.ar    1  UNL1       -0.0003
     37 CZ        144.6571  142.7546  162.9406 C.ar    1  UNL1       -0.0000
     38 CE2       143.9196  142.5233  161.6551 C.ar    1  UNL1       -0.0003
     39 CD2       143.7124  141.1260  161.1502 C.ar    1  UNL1       -0.0042
@<TRIPOS>UNITY_ATOM_ATTR
31 1
charge -1
@<TRIPOS>BOND
     1    24    25    1
     2    25    23    1
     3    23    21    1
     4    21    22    2
     5    21     1    1
     6     1     2    2
     7     2    26    1
     8    26    27    1
     9    27    29    1
    10    29    33    1
    11    33    34    1
    12    34    35   ar
    13    35    36   ar
    14    36    37   ar
    15    37    38   ar
    16    38    39   ar
    17    29    30    1
    18    30    31   ar
    19    30    32   ar
    20     2     3    1
    21     3     4    1
    22     4    16    1
    23    16    17   ar
    24    17    18   ar
    25    18    19   ar
    26    19    20   ar
    27     4     5    2
    28     5     6    1
    29     6     8    1
    30     8     9   ar
    31     9    10   ar
    32    10    11   ar
    33    11    12    1
    34    11    13   ar
    35    13    14   ar
    36    14    15    1
    37     6     1    1
    38    14     8   ar
    39    39    34   ar
    40    20    16   ar
    41    27    28    1
    42     3     7    1
@<TRIPOS>MOLECULE
*****
 39 42 0 0 0
SMALL
GASTEIGER

@<TRIPOS>ATOM
      1 C         141.5775  139.7043  164.2591 C.2     1  UNL1        0.1397
      2 C         141.8368  139.8265  162.7868 C.2     1  UNL1        0.1353
      3 N         141.6121  141.1368  162.0919 N.pl3   1  UNL1       -0.1998
      4 C         141.1281  142.3247  162.8693 C.2     1  UNL1        0.3442
      5 N         140.8688  142.2025  164.3416 N.2     1  UNL1       -0.0580
      6 C         141.0934  140.8923  165.0365 C.3     1  UNL1        0.2692
      7 H         141.7824  141.2170  161.1256 H       1  UNL1        0.2983
      8 C         140.8340  140.7701  166.5089 C.ar    1  UNL1        0.0371
      9 C         139.6172  140.0422  166.9982 C.ar    1  UNL1        0.0030
     10 C         139.3578  139.9200  168.4705 C.ar    1  UNL1        0.0295
     11 C         140.3153  140.5257  169.4536 C.ar    1  UNL1        0.1406
     12 F         140.0558  140.4034  170.9259 F       1  UNL1       -0.2042
     13 C         141.5321  141.2535  168.9643 C.ar    1  UNL1        0.0362
     14 C         141.7915  141.3757  167.4919 C.ar    1  UNL1        0.0372
     15 BR        143.0084  142.1036  167.0027 Br      1  UNL1       -0.0491
     16 C         140.9035  143.6349  162.1744 C.ar    1  UNL1        0.1931
     17 N         140.2283  144.8394  162.7604 N.ar    1  UNL1       -0.2297
     18 C         140.2221  145.9196  161.7197 C.ar    1  UNL1        0.1067
     19 C         140.8934  145.3827  160.4904 C.ar    1  UNL1        0.0577
     20 S         141.3145  143.9707  160.7715 S.2     1  UNL1       -0.0586
     21 C         141.8021  138.3941  164.9540 C.2     1  UNL1        0.3447
     22 O         140.7313  137.3438  164.9389 O.2     1  UNL1       -0.2450
     23 O         143.0976  138.1342  165.6641 O.3     1  UNL1       -0.4455
     24 C         145.0564  139.2436  164.3670 C.3     1  UNL1        0.0513
     25 C         144.2048  139.1439  165.5979 C.3     1  UNL1        0.2089
     26 C         142.3209  138.6385  162.0093 C.3     0  ACE0        0.1371
     27 N         141.3346  137.7264  161.3420 N.3     1  UNL1       -0.2872
     28 H         140.9121  137.1606  162.0780 H       1  UNL1        0.1240
     29 CA        140.2072  138.3013  160.5366 C.3     1  UNL1        0.0958
     30 C         140.4633  138.8230  159.1538 C.2     1  UNL1        0.0649
     31 O         141.1293  140.1539  158.9657 O.co2   1  UNL1       -0.5478
     32 OXT       140.0534  138.0140  157.9590 O.co2   1  UNL1       -0.5478
     33 CB        138.8239  138.3543  161.1140 C.3     1  UNL1        0.0478
     34 CG        138.3571  139.5864  161.8308 C.ar    1  UNL1       -0.0205
     35 CD1       138.0939  139.5410  163.3069 C.ar    1  UNL1       -0.0042
     36 CE1       137.6271  140.7732  164.0237 C.ar    1  UNL1       -0.0003
     37 CZ        137.4236  142.0508  163.2645 C.ar    1  UNL1       -0.0000
     38 CE2       137.6868  142.0962  161.7886 C.ar    1  UNL1       -0.0003
     39 CD2       138.1536  140.8640  161.0716 C.ar    1  UNL1       -0.0042
@<TRIPOS>UNITY_ATOM_ATTR
31 1
charge -1
@<TRIPOS>BOND
     1    24    25    1
     2    25    23    1
     3    23    21    1
     4    21    22    2
     5    21     1    1
     6     1     2    2
     7     2    26    1
     8    26    27    1
     9    27    29    1
    10    29    33    1
    11    33    34    1
    12    34    35   ar
    13    35    36   ar
    14    36    37   ar
    15    37    38   ar
    16    38    39   ar
    17    29    30    1
    18    30    31   ar
    19    30    32   ar
    20     2     3    1
    21     3     4    1
    22     4    16    1
    23    16    17   ar
    24    17    18   ar
    25    18    19   ar
    26    19    20   ar
    27     4     5    2
    28     5     6    1
    29     6     8    1
    30     8     9   ar
    31     9    10   ar
    32    10    11   ar
    33    11    12    1
    34    11    13   ar
    35    13    14   ar
    36    14    15    1
    37     6     1    1
    38    14     8   ar
    39    39    34   ar
    40    20    16   ar
    41    27    28    1
    42     3     7    1
