@<TRIPOS>MOLECULE
*****
 39 44 0 0 0
SMALL
GASTEIGER

@<TRIPOS>ATOM
      1 N         140.5333  144.5501  160.3723 N.3     1  UNL1       -0.1544
      2 C         141.4986  145.3239  161.2204 C.3     1  UNL1        0.1002
      3 C         141.6773  144.9693  162.6669 C.3     1  UNL1        0.0417
      4 C         140.8907  143.8410  163.2653 C.2     1  UNL1       -0.0333
      5 C         141.0694  143.4865  164.7118 C.2     1  UNL1        0.0109
      6 C         140.2828  142.3582  165.3102 C.ar    1  UNL1        0.0797
      7 C         139.3174  141.5843  164.4620 C.ar    1  UNL1        0.0171
      8 C         138.6853  140.5310  165.3228 C.ar    1  UNL1        0.1177
      9 N         139.2600  140.6538  166.7029 N.ar    1  UNL1       -0.1639
     10 N         140.2472  141.7830  166.6951 N.ar    1  UNL1       -0.2300
     11 C         139.1387  141.9389  163.0156 C.3     1  UNL1        0.0420
     12 C         139.9253  143.0672  162.4172 C.3     1  UNL1        0.0927
     13 C         139.7466  143.4217  160.9707 C.3     1  UNL1        0.1071
     14 C         141.0569  142.2544  167.8665 C.ar    1  UNL1        0.0829
     15 C         142.4854  141.8212  168.0139 C.ar    1  UNL1        0.0215
     16 C         143.2950  142.2927  169.1854 C.ar    1  UNL1        0.0312
     17 C         142.6762  143.1973  170.2094 C.ar    1  UNL1        0.1402
     18 F         143.4858  143.6687  171.3809 F       1  UNL1       -0.2042
     19 C         141.2476  143.6305  170.0620 C.ar    1  UNL1        0.0312
     20 C         140.4380  143.1591  168.8906 C.ar    1  UNL1        0.0215
     21 S         140.3545  144.9046  158.9258 S.O2    1  UNL1        0.0634
     22 O         141.0228  143.6217  158.5288 O.2     1  UNL1       -0.1528
     23 O         139.6863  146.1875  159.3227 O.2     1  UNL1       -0.1528
     24 C         139.4953  146.9743  155.6504 C.ar    1  UNL1        0.1401
     25 C         139.8184  145.9679  154.5862 C.ar    1  UNL1        0.0370
     26 C         140.3203  144.6070  154.9685 C.ar    1  UNL1        0.0045
     27 C         140.4990  144.2526  156.4150 C.ar    1  UNL1        0.0201
     28 C         140.1758  145.2590  157.4793 C.ar    1  UNL1        0.1252
     29 C         139.6740  146.6199  157.0970 C.ar    1  UNL1        0.0568
     30 C         139.8350  149.2307  154.4081 C.3     1  UNL1        0.2525
     31 O         138.9934  148.3352  155.2682 O.3     1  UNL1       -0.4714
     32 C         138.9600  142.2934  161.5691 C.2     1  UNL1        0.1948
     33 O         137.9447  143.0187  160.7364 O.2     1  UNL1       -0.2894
     34 C         139.0098  140.7943  161.5536 C.ar    1  UNL1        0.1162
     35 C         137.7426  140.0005  161.6714 C.ar    1  UNL1        0.0221
     36 C         137.7924  138.5014  161.6560 C.ar    1  UNL1        0.0032
     37 C         139.1095  137.7961  161.5227 C.ar    1  UNL1        0.0207
     38 C         140.3768  138.5899  161.4049 C.ar    1  UNL1        0.0989
     39 N         140.3270  140.0890  161.4204 N.ar    1  UNL1       -0.2409
@<TRIPOS>BOND
     1    30    31    1
     2    31    24    1
     3    24    25   ar
     4    25    26   ar
     5    26    27   ar
     6    27    28   ar
     7    28    21    1
     8    21    22    2
     9    21    23    2
    10    21     1    1
    11     1     2    1
    12     2     3    1
    13     3     4    1
    14     4     5    2
    15     5     6    1
    16     6     7   ar
    17     7     8   ar
    18     8     9   ar
    19     9    10   ar
    20    10    14    1
    21    14    15   ar
    22    15    16   ar
    23    16    17   ar
    24    17    18    1
    25    17    19   ar
    26    19    20   ar
    27     7    11    1
    28    11    12    1
    29    12    32    1
    30    32    33    2
    31    32    34    1
    32    34    35   ar
    33    35    36   ar
    34    36    37   ar
    35    37    38   ar
    36    38    39   ar
    37    12    13    1
    38    28    29   ar
    39    29    24   ar
    40    13     1    1
    41    12     4    1
    42    39    34   ar
    43    10     6   ar
    44    20    14   ar
@<TRIPOS>MOLECULE
*****
 39 44 0 0 0
SMALL
GASTEIGER

@<TRIPOS>ATOM
      1 N         141.5706  139.5610  165.2396 N.3     1  UNL1       -0.1544
      2 C         142.6499  138.7409  164.5973 C.3     1  UNL1        0.1002
      3 C         142.5654  138.4001  163.1390 C.3     1  UNL1        0.0417
      4 C         141.4017  138.8794  162.3230 C.2     1  UNL1       -0.0333
      5 C         141.3173  138.5386  160.8646 C.2     1  UNL1        0.0109
      6 C         140.1536  139.0179  160.0485 C.ar    1  UNL1        0.0797
      7 C         139.0742  139.8381  160.6908 C.ar    1  UNL1        0.0171
      8 C         138.0554  140.1675  159.6404 C.ar    1  UNL1        0.1177
      9 N         138.5050  139.5510  158.3490 N.ar    1  UNL1       -0.1639
     10 N         139.8017  138.8405  158.6012 N.ar    1  UNL1       -0.2300
     11 C         139.1587  140.1789  162.1491 C.3     1  UNL1        0.0420
     12 C         140.3224  139.6995  162.9652 C.3     1  UNL1        0.0927
     13 C         140.4069  140.0403  164.4235 C.3     1  UNL1        0.1071
     14 C         140.6055  138.0852  157.5846 C.ar    1  UNL1        0.0829
     15 C         142.1040  138.1436  157.6195 C.ar    1  UNL1        0.0215
     16 C         142.9077  137.3882  156.6028 C.ar    1  UNL1        0.0312
     17 C         142.2131  136.5746  155.5514 C.ar    1  UNL1        0.1402
     18 F         143.0169  135.8193  154.5349 F       1  UNL1       -0.2042
     19 C         140.7146  136.5163  155.5167 C.ar    1  UNL1        0.0312
     20 C         139.9109  137.2716  156.5332 C.ar    1  UNL1        0.0215
     21 S         141.6550  139.9018  166.6979 S.O2    1  UNL1        0.0634
     22 O         140.6657  141.0110  166.4959 O.2     1  UNL1       -0.1528
     23 O         142.6443  138.7927  166.9000 O.2     1  UNL1       -0.1528
     24 C         141.0627  141.7574  170.1557 C.ar    1  UNL1        0.1401
     25 C         141.9081  140.9244  171.0729 C.ar    1  UNL1        0.0370
     26 C         142.6693  139.7506  170.5318 C.ar    1  UNL1        0.0045
     27 C         142.5849  139.4097  169.0735 C.ar    1  UNL1        0.0201
     28 C         141.7394  140.2427  168.1562 C.ar    1  UNL1        0.1252
     29 C         140.9783  141.4165  168.6973 C.ar    1  UNL1        0.0568
     30 C         140.3925  144.2635  170.0137 C.3     1  UNL1        0.2525
     31 O         140.3015  142.9312  170.6968 O.3     1  UNL1       -0.4714
     32 C         139.2431  140.5197  163.6074 C.2     1  UNL1        0.1948
     33 O         138.2766  139.8759  164.5569 O.2     1  UNL1       -0.2894
     34 C         139.1303  141.9835  163.3001 C.ar    1  UNL1        0.1162
     35 C         137.8823  142.7321  163.6634 C.ar    1  UNL1        0.0221
     36 C         137.7694  144.1959  163.3562 C.ar    1  UNL1        0.0032
     37 C         138.9046  144.9112  162.6856 C.ar    1  UNL1        0.0207
     38 C         140.1527  144.1626  162.3223 C.ar    1  UNL1        0.0989
     39 N         140.2656  142.6988  162.6296 N.ar    1  UNL1       -0.2409
@<TRIPOS>BOND
     1    30    31    1
     2    31    24    1
     3    24    25   ar
     4    25    26   ar
     5    26    27   ar
     6    27    28   ar
     7    28    21    1
     8    21    22    2
     9    21    23    2
    10    21     1    1
    11     1     2    1
    12     2     3    1
    13     3     4    1
    14     4     5    2
    15     5     6    1
    16     6     7   ar
    17     7     8   ar
    18     8     9   ar
    19     9    10   ar
    20    10    14    1
    21    14    15   ar
    22    15    16   ar
    23    16    17   ar
    24    17    18    1
    25    17    19   ar
    26    19    20   ar
    27     7    11    1
    28    11    12    1
    29    12    32    1
    30    32    33    2
    31    32    34    1
    32    34    35   ar
    33    35    36   ar
    34    36    37   ar
    35    37    38   ar
    36    38    39   ar
    37    12    13    1
    38    28    29   ar
    39    29    24   ar
    40    13     1    1
    41    12     4    1
    42    39    34   ar
    43    10     6   ar
    44    20    14   ar
@<TRIPOS>MOLECULE
*****
 39 44 0 0 0
SMALL
GASTEIGER

@<TRIPOS>ATOM
      1 N         141.7855  138.9642  165.0163 N.3     1  UNL1       -0.1544
      2 C         141.0800  137.7293  164.5397 C.3     1  UNL1        0.1002
      3 C         141.1371  137.3449  163.0910 C.3     1  UNL1        0.0417
      4 C         141.8996  138.1954  162.1188 C.2     1  UNL1       -0.0333
      5 C         141.9566  137.8110  160.6700 C.2     1  UNL1        0.0109
      6 C         142.7191  138.6615  159.6978 C.ar    1  UNL1        0.0797
      7 C         143.4246  139.8966  160.1745 C.ar    1  UNL1        0.0171
      8 C         144.0926  140.5341  158.9924 C.ar    1  UNL1        0.1177
      9 N         143.8000  139.6932  157.7852 N.ar    1  UNL1       -0.1639
     10 N         142.9512  138.5359  158.2212 N.ar    1  UNL1       -0.2300
     11 C         143.3676  140.2809  161.6232 C.3     1  UNL1        0.0420
     12 C         142.6051  139.4304  162.5954 C.3     1  UNL1        0.0927
     13 C         142.5480  139.8148  164.0441 C.3     1  UNL1        0.1071
     14 C         142.4264  137.4445  157.3360 C.ar    1  UNL1        0.0829
     15 C         143.1516  136.1342  157.2508 C.ar    1  UNL1        0.0215
     16 C         142.6267  135.0428  156.3655 C.ar    1  UNL1        0.0312
     17 C         141.3768  135.2618  155.5656 C.ar    1  UNL1        0.1402
     18 F         140.8521  134.1704  154.6804 F       1  UNL1       -0.2042
     19 C         140.6518  136.5722  155.6509 C.ar    1  UNL1        0.0312
     20 C         141.1766  137.6635  156.5361 C.ar    1  UNL1        0.0215
     21 S         141.7285  139.3487  166.4652 S.O2    1  UNL1        0.0634
     22 O         143.1802  139.0022  166.6142 O.2     1  UNL1       -0.1528
     23 O         140.2767  139.6951  166.3161 O.2     1  UNL1       -0.1528
     24 C         140.4762  140.9501  169.8736 C.ar    1  UNL1        0.1401
     25 C         141.5576  140.5019  170.8115 C.ar    1  UNL1        0.0370
     26 C         142.6959  139.6693  170.3007 C.ar    1  UNL1        0.0045
     27 C         142.7529  139.2849  168.8519 C.ar    1  UNL1        0.0201
     28 C         141.6715  139.7331  167.9139 C.ar    1  UNL1        0.1252
     29 C         140.5331  140.5657  168.4247 C.ar    1  UNL1        0.0568
     30 C         139.5719  143.2098  170.7823 C.3     1  UNL1        0.2525
     31 O         139.3378  141.7827  170.3844 O.3     1  UNL1       -0.4714
     32 C         143.3105  140.6653  163.0720 C.2     1  UNL1        0.1948
     33 O         144.5602  140.5456  163.8930 O.2     1  UNL1       -0.2894
     34 C         142.7663  142.0201  162.7276 C.ar    1  UNL1        0.1162
     35 C         143.5026  143.2549  163.1553 C.ar    1  UNL1        0.0221
     36 C         142.9584  144.6097  162.8109 C.ar    1  UNL1        0.0032
     37 C         141.6780  144.7295  162.0389 C.ar    1  UNL1        0.0207
     38 C         140.9417  143.4946  161.6111 C.ar    1  UNL1        0.0989
     39 N         141.4859  142.1399  161.9555 N.ar    1  UNL1       -0.2409
@<TRIPOS>BOND
     1    30    31    1
     2    31    24    1
     3    24    25   ar
     4    25    26   ar
     5    26    27   ar
     6    27    28   ar
     7    28    21    1
     8    21    22    2
     9    21    23    2
    10    21     1    1
    11     1     2    1
    12     2     3    1
    13     3     4    1
    14     4     5    2
    15     5     6    1
    16     6     7   ar
    17     7     8   ar
    18     8     9   ar
    19     9    10   ar
    20    10    14    1
    21    14    15   ar
    22    15    16   ar
    23    16    17   ar
    24    17    18    1
    25    17    19   ar
    26    19    20   ar
    27     7    11    1
    28    11    12    1
    29    12    32    1
    30    32    33    2
    31    32    34    1
    32    34    35   ar
    33    35    36   ar
    34    36    37   ar
    35    37    38   ar
    36    38    39   ar
    37    12    13    1
    38    28    29   ar
    39    29    24   ar
    40    13     1    1
    41    12     4    1
    42    39    34   ar
    43    10     6   ar
    44    20    14   ar
@<TRIPOS>MOLECULE
*****
 39 44 0 0 0
SMALL
GASTEIGER

@<TRIPOS>ATOM
      1 N         141.6391  139.4274  165.1685 N.3     1  UNL1       -0.1544
      2 C         141.6104  137.9901  164.7403 C.3     1  UNL1        0.1002
      3 C         141.5534  137.6430  163.2821 C.3     1  UNL1        0.0417
      4 C         141.5253  138.7332  162.2522 C.2     1  UNL1       -0.0333
      5 C         141.4683  138.3860  160.7940 C.2     1  UNL1        0.0109
      6 C         141.4401  139.4761  159.7640 C.ar    1  UNL1        0.0797
      7 C         141.4689  140.9134  160.1923 C.ar    1  UNL1        0.0171
      8 C         141.4311  141.7655  158.9584 C.ar    1  UNL1        0.1177
      9 N         141.3789  140.8549  157.7676 N.ar    1  UNL1       -0.1639
     10 N         141.3845  139.4399  158.2655 N.ar    1  UNL1       -0.2300
     11 C         141.5259  141.2606  161.6504 C.3     1  UNL1        0.0420
     12 C         141.5540  140.1704  162.6804 C.3     1  UNL1        0.0927
     13 C         141.6110  140.5175  164.1385 C.3     1  UNL1        0.1071
     14 C         141.3420  138.2056  157.4144 C.ar    1  UNL1        0.0829
     15 C         140.1406  137.9236  156.5615 C.ar    1  UNL1        0.0215
     16 C         140.0982  136.6891  155.7104 C.ar    1  UNL1        0.0312
     17 C         141.2570  135.7367  155.7121 C.ar    1  UNL1        0.1402
     18 F         141.2144  134.5023  154.8610 F       1  UNL1       -0.2042
     19 C         142.4583  136.0187  156.5650 C.ar    1  UNL1        0.0312
     20 C         142.5008  137.2531  157.4161 C.ar    1  UNL1        0.0215
     21 S         141.6961  139.7746  166.6267 S.O2    1  UNL1        0.0634
     22 O         140.5341  140.7065  166.4501 O.2     1  UNL1       -0.1528
     23 O         142.8581  138.8426  166.8032 O.2     1  UNL1       -0.1528
     24 C         141.0083  141.6214  170.0714 C.ar    1  UNL1        0.1401
     25 C         141.8668  140.8162  171.0011 C.ar    1  UNL1        0.0370
     26 C         142.6685  139.6637  170.4727 C.ar    1  UNL1        0.0045
     27 C         142.6116  139.3165  169.0146 C.ar    1  UNL1        0.0201
     28 C         141.7530  140.1218  168.0848 C.ar    1  UNL1        0.1252
     29 C         140.9514  141.2742  168.6132 C.ar    1  UNL1        0.0568
     30 C         140.3416  144.1306  169.9745 C.3     1  UNL1        0.2525
     31 O         140.2067  142.7739  170.5998 O.3     1  UNL1       -0.4714
     32 C         141.5828  141.6077  163.1086 C.2     1  UNL1        0.1948
     33 O         142.8738  142.2346  163.5450 O.2     1  UNL1       -0.2894
     34 C         140.3206  142.4181  163.1004 C.ar    1  UNL1        0.1162
     35 C         140.3030  143.7851  163.7175 C.ar    1  UNL1        0.0221
     36 C         139.0409  144.5956  163.7093 C.ar    1  UNL1        0.0032
     37 C         137.7962  144.0390  163.0840 C.ar    1  UNL1        0.0207
     38 C         137.8137  142.6719  162.4668 C.ar    1  UNL1        0.0989
     39 N         139.0759  141.8615  162.4750 N.ar    1  UNL1       -0.2409
@<TRIPOS>BOND
     1    30    31    1
     2    31    24    1
     3    24    25   ar
     4    25    26   ar
     5    26    27   ar
     6    27    28   ar
     7    28    21    1
     8    21    22    2
     9    21    23    2
    10    21     1    1
    11     1     2    1
    12     2     3    1
    13     3     4    1
    14     4     5    2
    15     5     6    1
    16     6     7   ar
    17     7     8   ar
    18     8     9   ar
    19     9    10   ar
    20    10    14    1
    21    14    15   ar
    22    15    16   ar
    23    16    17   ar
    24    17    18    1
    25    17    19   ar
    26    19    20   ar
    27     7    11    1
    28    11    12    1
    29    12    32    1
    30    32    33    2
    31    32    34    1
    32    34    35   ar
    33    35    36   ar
    34    36    37   ar
    35    37    38   ar
    36    38    39   ar
    37    12    13    1
    38    28    29   ar
    39    29    24   ar
    40    13     1    1
    41    12     4    1
    42    39    34   ar
    43    10     6   ar
    44    20    14   ar
@<TRIPOS>MOLECULE
*****
 39 44 0 0 0
SMALL
GASTEIGER

@<TRIPOS>ATOM
      1 N         140.8575  139.5271  164.8525 N.3     1  UNL1       -0.1544
      2 C         141.1005  138.0792  164.5453 C.3     1  UNL1        0.1002
      3 C         141.2485  137.6291  163.1221 C.3     1  UNL1        0.0417
      4 C         141.1535  138.6268  162.0062 C.2     1  UNL1       -0.0333
      5 C         141.3015  138.1766  160.5829 C.2     1  UNL1        0.0109
      6 C         141.2065  139.1744  159.4670 C.ar    1  UNL1        0.0797
      7 C         140.9635  140.6224  159.7742 C.ar    1  UNL1        0.0171
      8 C         140.9174  141.3705  158.4749 C.ar    1  UNL1        0.1177
      9 N         141.1320  140.3849  157.3647 N.ar    1  UNL1       -0.1639
     10 N         141.3107  139.0277  157.9778 N.ar    1  UNL1       -0.2300
     11 C         140.8155  141.0726  161.1974 C.3     1  UNL1        0.0420
     12 C         140.9105  140.0748  162.3133 C.3     1  UNL1        0.0927
     13 C         140.7625  140.5249  163.7365 C.3     1  UNL1        0.1071
     14 C         141.5512  137.7483  157.2327 C.ar    1  UNL1        0.0829
     15 C         142.7883  136.9442  157.5029 C.ar    1  UNL1        0.0215
     16 C         143.0288  135.6647  156.7577 C.ar    1  UNL1        0.0312
     17 C         142.0323  135.1895  155.7423 C.ar    1  UNL1        0.1402
     18 F         142.2729  133.9101  154.9971 F       1  UNL1       -0.2042
     19 C         140.7952  135.9937  155.4720 C.ar    1  UNL1        0.0312
     20 C         140.5547  137.2730  156.2172 C.ar    1  UNL1        0.0215
     21 S         140.7095  139.9773  166.2757 S.O2    1  UNL1        0.0634
     22 O         139.3932  140.6122  165.9379 O.2     1  UNL1       -0.1528
     23 O         142.0259  139.3425  166.6135 O.2     1  UNL1       -0.1528
     24 C         141.4760  141.7268  169.7545 C.ar    1  UNL1        0.1401
     25 C         140.2653  141.3279  170.5452 C.ar    1  UNL1        0.0370
     26 C         139.2027  140.4789  169.9127 C.ar    1  UNL1        0.0045
     27 C         139.3508  140.0287  168.4896 C.ar    1  UNL1        0.0201
     28 C         140.5615  140.4275  167.6988 C.ar    1  UNL1        0.1252
     29 C         141.6241  141.2765  168.3313 C.ar    1  UNL1        0.0568
     30 C         143.9677  142.4350  169.9536 C.3     1  UNL1        0.2525
     31 O         142.5386  142.5758  170.3870 O.3     1  UNL1       -0.4714
     32 C         140.6675  141.5227  162.6205 C.2     1  UNL1        0.1948
     33 O         139.2740  142.0089  162.8889 O.2     1  UNL1       -0.2894
     34 C         141.8179  142.4845  162.6594 C.ar    1  UNL1        0.1162
     35 C         143.1640  142.0647  162.1479 C.ar    1  UNL1        0.0221
     36 C         144.3144  143.0266  162.1868 C.ar    1  UNL1        0.0032
     37 C         144.1187  144.4081  162.7371 C.ar    1  UNL1        0.0207
     38 C         142.7725  144.8280  163.2486 C.ar    1  UNL1        0.0989
     39 N         141.6221  143.8661  163.2097 N.ar    1  UNL1       -0.2409
@<TRIPOS>BOND
     1    30    31    1
     2    31    24    1
     3    24    25   ar
     4    25    26   ar
     5    26    27   ar
     6    27    28   ar
     7    28    21    1
     8    21    22    2
     9    21    23    2
    10    21     1    1
    11     1     2    1
    12     2     3    1
    13     3     4    1
    14     4     5    2
    15     5     6    1
    16     6     7   ar
    17     7     8   ar
    18     8     9   ar
    19     9    10   ar
    20    10    14    1
    21    14    15   ar
    22    15    16   ar
    23    16    17   ar
    24    17    18    1
    25    17    19   ar
    26    19    20   ar
    27     7    11    1
    28    11    12    1
    29    12    32    1
    30    32    33    2
    31    32    34    1
    32    34    35   ar
    33    35    36   ar
    34    36    37   ar
    35    37    38   ar
    36    38    39   ar
    37    12    13    1
    38    28    29   ar
    39    29    24   ar
    40    13     1    1
    41    12     4    1
    42    39    34   ar
    43    10     6   ar
    44    20    14   ar
@<TRIPOS>MOLECULE
*****
 39 44 0 0 0
SMALL
GASTEIGER

@<TRIPOS>ATOM
      1 N         143.2385  140.9884  164.8987 N.3     1  UNL1       -0.1544
      2 C         144.6762  140.8675  164.4884 C.3     1  UNL1        0.1002
      3 C         145.0548  140.9761  163.0411 C.3     1  UNL1        0.0417
      4 C         143.9956  141.2056  162.0040 C.2     1  UNL1       -0.0333
      5 C         144.3743  141.3143  160.5566 C.2     1  UNL1        0.0109
      6 C         143.3151  141.5438  159.5195 C.ar    1  UNL1        0.0797
      7 C         141.8774  141.6647  159.9298 C.ar    1  UNL1        0.0171
      8 C         141.0594  141.8877  158.6924 C.ar    1  UNL1        0.1177
      9 N         141.9916  141.9046  157.5173 N.ar    1  UNL1       -0.1639
     10 N         143.3857  141.6921  158.0285 N.ar    1  UNL1       -0.2300
     11 C         141.4988  141.5560  161.3772 C.3     1  UNL1        0.0420
     12 C         142.5579  141.3265  162.4142 C.3     1  UNL1        0.0927
     13 C         142.1794  141.2179  163.8616 C.3     1  UNL1        0.1071
     14 C         144.6317  141.6374  157.1951 C.ar    1  UNL1        0.0829
     15 C         144.7414  140.6466  156.0743 C.ar    1  UNL1        0.0215
     16 C         145.9875  140.5921  155.2409 C.ar    1  UNL1        0.0312
     17 C         147.1237  141.5282  155.5283 C.ar    1  UNL1        0.1402
     18 F         148.3696  141.4736  154.6949 F       1  UNL1       -0.2042
     19 C         147.0138  142.5190  156.6492 C.ar    1  UNL1        0.0312
     20 C         145.7679  142.5736  157.4825 C.ar    1  UNL1        0.0215
     21 S         142.8599  140.8798  166.3461 S.O2    1  UNL1        0.0634
     22 O         143.1649  139.4114  166.3156 O.2     1  UNL1       -0.1528
     23 O         142.5549  142.3481  166.3765 O.2     1  UNL1       -0.1528
     24 C         141.6370  141.8771  169.9875 C.ar    1  UNL1        0.1401
     25 C         141.7241  140.5537  170.6881 C.ar    1  UNL1        0.0370
     26 C         142.1898  139.3390  169.9415 C.ar    1  UNL1        0.0045
     27 C         142.5684  139.4476  168.4941 C.ar    1  UNL1        0.0201
     28 C         142.4813  140.7711  167.7934 C.ar    1  UNL1        0.1252
     29 C         142.0156  141.9858  168.5401 C.ar    1  UNL1        0.0568
     30 C         140.3994  144.1612  170.0197 C.3     1  UNL1        0.2525
     31 O         141.1712  143.0918  170.7342 O.3     1  UNL1       -0.4714
     32 C         141.1202  141.4474  162.8245 C.2     1  UNL1        0.1948
     33 O         140.6674  142.6276  163.6321 O.2     1  UNL1       -0.2894
     34 C         140.1353  140.3881  162.4272 C.ar    1  UNL1        0.1162
     35 C         138.6855  140.7359  162.2626 C.ar    1  UNL1        0.0221
     36 C         137.7006  139.6766  161.8653 C.ar    1  UNL1        0.0032
     37 C         138.1654  138.2696  161.6326 C.ar    1  UNL1        0.0207
     38 C         139.6153  137.9218  161.7973 C.ar    1  UNL1        0.0989
     39 N         140.6002  138.9810  162.1946 N.ar    1  UNL1       -0.2409
@<TRIPOS>BOND
     1    30    31    1
     2    31    24    1
     3    24    25   ar
     4    25    26   ar
     5    26    27   ar
     6    27    28   ar
     7    28    21    1
     8    21    22    2
     9    21    23    2
    10    21     1    1
    11     1     2    1
    12     2     3    1
    13     3     4    1
    14     4     5    2
    15     5     6    1
    16     6     7   ar
    17     7     8   ar
    18     8     9   ar
    19     9    10   ar
    20    10    14    1
    21    14    15   ar
    22    15    16   ar
    23    16    17   ar
    24    17    18    1
    25    17    19   ar
    26    19    20   ar
    27     7    11    1
    28    11    12    1
    29    12    32    1
    30    32    33    2
    31    32    34    1
    32    34    35   ar
    33    35    36   ar
    34    36    37   ar
    35    37    38   ar
    36    38    39   ar
    37    12    13    1
    38    28    29   ar
    39    29    24   ar
    40    13     1    1
    41    12     4    1
    42    39    34   ar
    43    10     6   ar
    44    20    14   ar
@<TRIPOS>MOLECULE
*****
 39 44 0 0 0
SMALL
GASTEIGER

@<TRIPOS>ATOM
      1 N         141.4666  144.1947  160.8602 N.3     1  UNL1       -0.1544
      2 C         141.1055  145.0406  162.0451 C.3     1  UNL1        0.1002
      3 C         141.2783  144.4994  163.4334 C.3     1  UNL1        0.0417
      4 C         141.8120  143.1124  163.6367 C.2     1  UNL1       -0.0333
      5 C         141.9847  142.5713  165.0251 C.2     1  UNL1        0.0109
      6 C         142.5185  141.1843  165.2284 C.ar    1  UNL1        0.0797
      7 C         142.8796  140.3385  164.0434 C.ar    1  UNL1        0.0171
      8 C         143.3791  139.0184  164.5512 C.ar    1  UNL1        0.1177
      9 N         143.3267  139.0484  166.0500 N.ar    1  UNL1       -0.1639
     10 N         142.7949  140.3870  166.4685 N.ar    1  UNL1       -0.2300
     11 C         142.7069  140.8796  162.6551 C.3     1  UNL1        0.0420
     12 C         142.1731  142.2666  162.4518 C.3     1  UNL1        0.0927
     13 C         142.0004  142.8077  161.0635 C.3     1  UNL1        0.1071
     14 C         142.5775  140.8475  167.8794 C.ar    1  UNL1        0.0829
     15 C         141.7202  140.0399  168.8083 C.ar    1  UNL1        0.0215
     16 C         141.5029  140.5005  170.2192 C.ar    1  UNL1        0.0312
     17 C         142.1428  141.7686  170.7013 C.ar    1  UNL1        0.1402
     18 F         141.9255  142.2291  172.1122 F       1  UNL1       -0.2042
     19 C         143.0001  142.5762  169.7723 C.ar    1  UNL1        0.0312
     20 C         143.2174  142.1156  168.3614 C.ar    1  UNL1        0.0215
     21 S         141.2939  144.7358  159.4719 S.O2    1  UNL1        0.0634
     22 O         139.9050  145.1834  159.8191 O.2     1  UNL1       -0.1528
     23 O         142.6828  144.2882  159.1246 O.2     1  UNL1       -0.1528
     24 C         139.8457  146.7915  156.4015 C.ar    1  UNL1        0.1401
     25 C         140.7757  146.3591  155.3070 C.ar    1  UNL1        0.0370
     26 C         141.8785  145.3857  155.6007 C.ar    1  UNL1        0.0045
     27 C         142.0512  144.8446  156.9890 C.ar    1  UNL1        0.0201
     28 C         141.1212  145.2769  158.0836 C.ar    1  UNL1        0.1252
     29 C         140.0184  146.2504  157.7899 C.ar    1  UNL1        0.0568
     30 C         139.0183  148.9809  155.2739 C.3     1  UNL1        0.2525
     31 O         138.7429  147.7649  156.1078 O.3     1  UNL1       -0.4714
     32 C         142.5342  141.4207  161.2669 C.2     1  UNL1        0.1948
     33 O         143.8767  141.5756  160.6159 O.2     1  UNL1       -0.2894
     34 C         141.5527  140.4199  160.7328 C.ar    1  UNL1        0.1162
     35 C         140.3668  140.0181  161.5586 C.ar    1  UNL1        0.0221
     36 C         139.3854  139.0173  161.0246 C.ar    1  UNL1        0.0032
     37 C         139.5899  138.4183  159.6647 C.ar    1  UNL1        0.0207
     38 C         140.7759  138.8202  158.8388 C.ar    1  UNL1        0.0989
     39 N         141.7573  139.8210  159.3728 N.ar    1  UNL1       -0.2409
@<TRIPOS>BOND
     1    30    31    1
     2    31    24    1
     3    24    25   ar
     4    25    26   ar
     5    26    27   ar
     6    27    28   ar
     7    28    21    1
     8    21    22    2
     9    21    23    2
    10    21     1    1
    11     1     2    1
    12     2     3    1
    13     3     4    1
    14     4     5    2
    15     5     6    1
    16     6     7   ar
    17     7     8   ar
    18     8     9   ar
    19     9    10   ar
    20    10    14    1
    21    14    15   ar
    22    15    16   ar
    23    16    17   ar
    24    17    18    1
    25    17    19   ar
    26    19    20   ar
    27     7    11    1
    28    11    12    1
    29    12    32    1
    30    32    33    2
    31    32    34    1
    32    34    35   ar
    33    35    36   ar
    34    36    37   ar
    35    37    38   ar
    36    38    39   ar
    37    12    13    1
    38    28    29   ar
    39    29    24   ar
    40    13     1    1
    41    12     4    1
    42    39    34   ar
    43    10     6   ar
    44    20    14   ar
@<TRIPOS>MOLECULE
*****
 39 44 0 0 0
SMALL
GASTEIGER

@<TRIPOS>ATOM
      1 N         143.0917  140.7760  164.8759 N.3     1  UNL1       -0.1544
      2 C         144.5153  140.9505  164.4368 C.3     1  UNL1        0.1002
      3 C         144.8477  141.0073  162.9752 C.3     1  UNL1        0.0417
      4 C         143.7565  140.8896  161.9528 C.2     1  UNL1       -0.0333
      5 C         144.0890  140.9464  160.4911 C.2     1  UNL1        0.0109
      6 C         142.9978  140.8288  159.4687 C.ar    1  UNL1        0.0797
      7 C         141.5741  140.6543  159.9079 C.ar    1  UNL1        0.0171
      8 C         140.7176  140.5670  158.6796 C.ar    1  UNL1        0.1177
      9 N         141.6118  140.6875  157.4813 N.ar    1  UNL1       -0.1639
     10 N         143.0211  140.8493  157.9690 N.ar    1  UNL1       -0.2300
     11 C         141.2417  140.5975  161.3694 C.3     1  UNL1        0.0420
     12 C         142.3329  140.7152  162.3919 C.3     1  UNL1        0.0927
     13 C         142.0005  140.6584  163.8535 C.3     1  UNL1        0.1071
     14 C         144.2397  141.0043  157.1082 C.ar    1  UNL1        0.0829
     15 C         145.1951  142.1336  157.3572 C.ar    1  UNL1        0.0215
     16 C         146.4137  142.2885  156.4963 C.ar    1  UNL1        0.0312
     17 C         146.6769  141.3143  155.3865 C.ar    1  UNL1        0.1402
     18 F         147.8955  141.4694  154.5257 F       1  UNL1       -0.2042
     19 C         145.7214  140.1851  155.1376 C.ar    1  UNL1        0.0312
     20 C         144.5028  140.0301  155.9984 C.ar    1  UNL1        0.0215
     21 S         142.7593  140.7192  166.3376 S.O2    1  UNL1        0.0634
     22 O         143.1395  142.1632  166.4801 O.2     1  UNL1       -0.1528
     23 O         142.3790  139.2753  166.1950 O.2     1  UNL1       -0.1528
     24 C         141.6743  141.8513  169.9833 C.ar    1  UNL1        0.1401
     25 C         141.7619  140.5489  170.7223 C.ar    1  UNL1        0.0370
     26 C         142.1820  139.3034  169.9998 C.ar    1  UNL1        0.0045
     27 C         142.5145  139.3601  168.5382 C.ar    1  UNL1        0.0201
     28 C         142.4268  140.6625  167.7991 C.ar    1  UNL1        0.1252
     29 C         142.0067  141.9081  168.5217 C.ar    1  UNL1        0.0568
     30 C         140.4096  144.1206  170.0069 C.3     1  UNL1        0.2525
     31 O         141.2542  143.0968  170.7058 O.3     1  UNL1       -0.4714
     32 C         140.9093  140.5407  162.8310 C.2     1  UNL1        0.1948
     33 O         140.4268  139.1985  163.2955 O.2     1  UNL1       -0.2894
     34 C         139.9682  141.7085  162.8056 C.ar    1  UNL1        0.1162
     35 C         140.3947  143.0020  162.1774 C.ar    1  UNL1        0.0221
     36 C         139.4536  144.1697  162.1520 C.ar    1  UNL1        0.0032
     37 C         138.0858  144.0439  162.7548 C.ar    1  UNL1        0.0207
     38 C         137.6592  142.7503  163.3831 C.ar    1  UNL1        0.0989
     39 N         138.6004  141.5826  163.4085 N.ar    1  UNL1       -0.2409
@<TRIPOS>BOND
     1    30    31    1
     2    31    24    1
     3    24    25   ar
     4    25    26   ar
     5    26    27   ar
     6    27    28   ar
     7    28    21    1
     8    21    22    2
     9    21    23    2
    10    21     1    1
    11     1     2    1
    12     2     3    1
    13     3     4    1
    14     4     5    2
    15     5     6    1
    16     6     7   ar
    17     7     8   ar
    18     8     9   ar
    19     9    10   ar
    20    10    14    1
    21    14    15   ar
    22    15    16   ar
    23    16    17   ar
    24    17    18    1
    25    17    19   ar
    26    19    20   ar
    27     7    11    1
    28    11    12    1
    29    12    32    1
    30    32    33    2
    31    32    34    1
    32    34    35   ar
    33    35    36   ar
    34    36    37   ar
    35    37    38   ar
    36    38    39   ar
    37    12    13    1
    38    28    29   ar
    39    29    24   ar
    40    13     1    1
    41    12     4    1
    42    39    34   ar
    43    10     6   ar
    44    20    14   ar
@<TRIPOS>MOLECULE
*****
 39 44 0 0 0
SMALL
GASTEIGER

@<TRIPOS>ATOM
      1 N         139.9037  140.0067  164.5538 N.3     1  UNL1       -0.1544
      2 C         138.6635  139.5541  163.8419 C.3     1  UNL1        0.1002
      3 C         138.7204  139.2054  162.3841 C.3     1  UNL1        0.0417
      4 C         140.0177  139.3094  161.6382 C.2     1  UNL1       -0.0333
      5 C         140.0746  138.9607  160.1804 C.2     1  UNL1        0.0109
      6 C         141.3718  139.0647  159.4345 C.ar    1  UNL1        0.0797
      7 C         142.6121  139.5173  160.1464 C.ar    1  UNL1        0.0171
      8 C         143.7390  139.5228  159.1564 C.ar    1  UNL1        0.1177
      9 N         143.1951  139.0736  157.8326 N.ar    1  UNL1       -0.1639
     10 N         141.7322  138.7904  158.0045 N.ar    1  UNL1       -0.2300
     11 C         142.5552  139.8660  161.6042 C.3     1  UNL1        0.0420
     12 C         141.2579  139.7620  162.3501 C.3     1  UNL1        0.0927
     13 C         141.2010  140.1107  163.8079 C.3     1  UNL1        0.1071
     14 C         140.7942  138.3163  156.9343 C.ar    1  UNL1        0.0829
     15 C         139.7267  139.2321  156.4129 C.ar    1  UNL1        0.0215
     16 C         138.7887  138.7578  155.3426 C.ar    1  UNL1        0.0312
     17 C         138.9182  137.3678  154.7939 C.ar    1  UNL1        0.1402
     18 F         137.9802  136.8936  153.7237 F       1  UNL1       -0.2042
     19 C         139.9857  136.4520  155.3153 C.ar    1  UNL1        0.0312
     20 C         140.9236  136.9263  156.3855 C.ar    1  UNL1        0.0215
     21 S         139.8468  140.3555  166.0116 S.O2    1  UNL1        0.0634
     22 O         139.0102  139.1376  166.2702 O.2     1  UNL1       -0.1528
     23 O         140.6834  141.5733  165.7530 O.2     1  UNL1       -0.1528
     24 C         140.5568  142.1874  169.4598 C.ar    1  UNL1        0.1401
     25 C         139.6759  141.4014  170.3850 C.ar    1  UNL1        0.0370
     26 C         138.8519  140.2667  169.8525 C.ar    1  UNL1        0.0045
     27 C         138.9089  139.9181  168.3947 C.ar    1  UNL1        0.0201
     28 C         139.7899  140.7041  167.4694 C.ar    1  UNL1        0.1252
     29 C         140.6138  141.8388  168.0019 C.ar    1  UNL1        0.0568
     30 C         142.8003  143.0844  170.4149 C.3     1  UNL1        0.2525
     31 O         141.3808  143.3221  169.9923 O.3     1  UNL1       -0.4714
     32 C         142.4982  140.2147  163.0620 C.2     1  UNL1        0.1948
     33 O         143.3263  139.2261  163.8283 O.2     1  UNL1       -0.2894
     34 C         142.9105  141.6559  163.0076 C.ar    1  UNL1        0.1162
     35 C         142.3649  142.5521  161.9356 C.ar    1  UNL1        0.0221
     36 C         142.7772  143.9933  161.8813 C.ar    1  UNL1        0.0032
     37 C         143.7351  144.5383  162.8988 C.ar    1  UNL1        0.0207
     38 C         144.2807  143.6421  163.9709 C.ar    1  UNL1        0.0989
     39 N         143.8684  142.2009  164.0252 N.ar    1  UNL1       -0.2409
@<TRIPOS>BOND
     1    30    31    1
     2    31    24    1
     3    24    25   ar
     4    25    26   ar
     5    26    27   ar
     6    27    28   ar
     7    28    21    1
     8    21    22    2
     9    21    23    2
    10    21     1    1
    11     1     2    1
    12     2     3    1
    13     3     4    1
    14     4     5    2
    15     5     6    1
    16     6     7   ar
    17     7     8   ar
    18     8     9   ar
    19     9    10   ar
    20    10    14    1
    21    14    15   ar
    22    15    16   ar
    23    16    17   ar
    24    17    18    1
    25    17    19   ar
    26    19    20   ar
    27     7    11    1
    28    11    12    1
    29    12    32    1
    30    32    33    2
    31    32    34    1
    32    34    35   ar
    33    35    36   ar
    34    36    37   ar
    35    37    38   ar
    36    38    39   ar
    37    12    13    1
    38    28    29   ar
    39    29    24   ar
    40    13     1    1
    41    12     4    1
    42    39    34   ar
    43    10     6   ar
    44    20    14   ar
