@<TRIPOS>MOLECULE
*****
 34 37 0 0 0
SMALL
GASTEIGER

@<TRIPOS>ATOM
      1 C         140.2331  140.0878  166.6498 C.2     1  UNL1       -0.0221
      2 C         141.0235  141.3546  166.5070 C.2     1  UNL1       -0.0040
      3 C         141.5940  142.0238  167.7222 C.ar    1  UNL1       -0.0001
      4 C         143.0121  141.7551  168.1303 C.ar    1  UNL1        0.0031
      5 C         143.5825  142.4243  169.3455 C.ar    1  UNL1        0.0366
      6 C         142.7347  143.3623  170.1526 C.ar    1  UNL1        0.1337
      7 O         143.3052  144.0315  171.3679 O.3     1  UNL1       -0.5055
      8 C         141.3166  143.6310  169.7446 C.ar    1  UNL1        0.0366
      9 C         140.7462  142.9618  168.5293 C.ar    1  UNL1        0.0031
     10 H         144.1910  143.8636  171.6228 H       1  UNL1        0.2922
     11 C         141.2435  141.9522  165.1488 C.ar    1  UNL1       -0.0003
     12 C         142.1894  141.2980  164.1859 C.ar    1  UNL1       -0.0003
     13 C         142.4094  141.8957  162.8277 C.ar    1  UNL1       -0.0043
     14 C         141.6835  143.1474  162.4326 C.ar    1  UNL1       -0.0224
     15 C         140.7376  143.8017  163.3957 C.ar    1  UNL1       -0.0043
     16 C         140.5176  143.2040  164.7538 C.ar    1  UNL1       -0.0003
     17 C         141.9035  143.7451  161.0745 C.3     1  UNL1        0.0251
     18 C         141.1377  144.9661  160.6594 C.3     1  UNL1        0.0215
     19 C         141.3577  145.5638  159.3013 C.3     1  UNL1        0.0689
     20 N         142.3435  144.9403  158.3583 N.3     1  UNL1       -0.2974
     21 C         143.1095  143.7192  158.7734 C.3     1  UNL1        0.0689
     22 C         142.8895  143.1215  160.1315 C.3     1  UNL1        0.0215
     23 H         143.0327  145.6585  158.1356 H       1  UNL1        0.1232
     24 C         139.6627  139.4185  165.4346 C.ar    1  UNL1       -0.0040
     25 C         140.2053  138.0951  164.9829 C.ar    1  UNL1       -0.0003
     26 C         139.6349  137.4260  163.7677 C.ar    1  UNL1       -0.0000
     27 C         138.5218  138.0802  163.0042 C.ar    1  UNL1       -0.0000
     28 C         137.9791  139.4036  163.4559 C.ar    1  UNL1       -0.0000
     29 C         138.5496  140.0728  164.6711 C.ar    1  UNL1       -0.0003
     30 C         140.0131  139.4901  168.0079 C.3     1  UNL1        0.0289
     31 C         138.8080  139.8789  168.8122 C.3     1  UNL1        0.0364
     32 O         139.5085  139.3621  171.2601 O.3     1  UNL1       -0.3820
     33 C         138.9673  140.3172  170.2378 C.3     1  UNL1        0.1375
     34 H         139.5468  139.8010  172.1243 H       1  UNL1        0.2104
@<TRIPOS>BOND
     1    32    33    1
     2    33    31    1
     3    31    30    1
     4    30     1    1
     5     1     2    2
     6     2     3    1
     7     3     4   ar
     8     4     5   ar
     9     5     6   ar
    10     6     7    1
    11     6     8   ar
    12     8     9   ar
    13     2    11    1
    14    11    12   ar
    15    12    13   ar
    16    13    14   ar
    17    14    17    1
    18    17    18    1
    19    18    19    1
    20    19    20    1
    21    20    21    1
    22    21    22    1
    23    14    15   ar
    24    15    16   ar
    25     1    24    1
    26    24    25   ar
    27    25    26   ar
    28    26    27   ar
    29    27    28   ar
    30    28    29   ar
    31     9     3   ar
    32    16    11   ar
    33    29    24   ar
    34    22    17    1
    35    32    34    1
    36     7    10    1
    37    20    23    1
@<TRIPOS>MOLECULE
*****
 34 37 0 0 0
SMALL
GASTEIGER

@<TRIPOS>ATOM
      1 C         142.3437  140.0753  165.7842 C.2     1  UNL1       -0.0221
      2 C         140.9832  140.1289  165.1548 C.2     1  UNL1       -0.0040
      3 C         139.8319  139.4111  165.7947 C.ar    1  UNL1       -0.0001
      4 C         139.1702  139.9889  167.0105 C.ar    1  UNL1        0.0031
      5 C         138.0190  139.2711  167.6504 C.ar    1  UNL1        0.0366
      6 C         137.5295  137.9755  167.0744 C.ar    1  UNL1        0.1337
      7 O         136.3783  137.2577  167.7144 O.3     1  UNL1       -0.5055
      8 C         138.1913  137.3976  165.8587 C.ar    1  UNL1        0.0366
      9 C         139.3425  138.1154  165.2188 C.ar    1  UNL1        0.0031
     10 H         135.9649  137.6186  168.4738 H       1  UNL1        0.2922
     11 C         140.7739  140.9003  163.8855 C.ar    1  UNL1       -0.0003
     12 C         141.0059  140.2392  162.5592 C.ar    1  UNL1       -0.0003
     13 C         140.7966  141.0105  161.2899 C.ar    1  UNL1       -0.0043
     14 C         140.3553  142.4430  161.3468 C.ar    1  UNL1       -0.0224
     15 C         140.1233  143.1041  162.6732 C.ar    1  UNL1       -0.0043
     16 C         140.3326  142.3328  163.9425 C.ar    1  UNL1       -0.0003
     17 C         140.1460  143.2143  160.0775 C.3     1  UNL1        0.0251
     18 C         140.5339  144.6615  160.0067 C.3     1  UNL1        0.0215
     19 C         140.3246  145.4329  158.7373 C.3     1  UNL1        0.0689
     20 N         139.7274  144.7570  157.5388 N.3     1  UNL1       -0.2974
     21 C         139.3395  143.3097  157.6096 C.3     1  UNL1        0.0689
     22 C         139.5488  142.5384  158.8789 C.3     1  UNL1        0.0215
     23 H         140.4071  144.8431  156.7831 H       1  UNL1        0.1232
     24 C         143.4949  140.7931  165.1443 C.ar    1  UNL1       -0.0040
     25 C         144.4062  140.0610  164.2044 C.ar    1  UNL1       -0.0003
     26 C         145.5574  140.7788  163.5646 C.ar    1  UNL1       -0.0000
     27 C         145.7973  142.2288  163.8646 C.ar    1  UNL1       -0.0000
     28 C         144.8860  142.9609  164.8045 C.ar    1  UNL1       -0.0000
     29 C         143.7348  142.2431  165.4443 C.ar    1  UNL1       -0.0003
     30 C         142.5530  139.3040  167.0536 C.3     1  UNL1        0.0289
     31 C         142.6590  140.0286  168.3627 C.3     1  UNL1        0.0364
     32 O         142.9599  138.3785  170.3468 O.3     1  UNL1       -0.3820
     33 C         142.1327  139.3941  169.6159 C.3     1  UNL1        0.1375
     34 H         142.4764  138.0705  171.1293 H       1  UNL1        0.2104
@<TRIPOS>BOND
     1    32    33    1
     2    33    31    1
     3    31    30    1
     4    30     1    1
     5     1     2    2
     6     2     3    1
     7     3     4   ar
     8     4     5   ar
     9     5     6   ar
    10     6     7    1
    11     6     8   ar
    12     8     9   ar
    13     2    11    1
    14    11    12   ar
    15    12    13   ar
    16    13    14   ar
    17    14    17    1
    18    17    18    1
    19    18    19    1
    20    19    20    1
    21    20    21    1
    22    21    22    1
    23    14    15   ar
    24    15    16   ar
    25     1    24    1
    26    24    25   ar
    27    25    26   ar
    28    26    27   ar
    29    27    28   ar
    30    28    29   ar
    31     9     3   ar
    32    16    11   ar
    33    29    24   ar
    34    22    17    1
    35    32    34    1
    36     7    10    1
    37    20    23    1
@<TRIPOS>MOLECULE
*****
 34 37 0 0 0
SMALL
GASTEIGER

@<TRIPOS>ATOM
      1 C         139.8569  140.0042  165.7795 C.2     1  UNL1       -0.0221
      2 C         140.7171  141.2316  165.7206 C.2     1  UNL1       -0.0040
      3 C         141.2523  141.8339  166.9859 C.ar    1  UNL1       -0.0001
      4 C         142.6817  141.6058  167.3790 C.ar    1  UNL1        0.0031
      5 C         143.2168  142.2080  168.6443 C.ar    1  UNL1        0.0366
      6 C         142.3225  143.0384  169.5164 C.ar    1  UNL1        0.1337
      7 O         142.8576  143.6407  170.7817 O.3     1  UNL1       -0.5055
      8 C         140.8930  143.2665  169.1233 C.ar    1  UNL1        0.0366
      9 C         140.3579  142.6643  167.8580 C.ar    1  UNL1        0.0031
     10 H         143.7506  143.4982  171.0273 H       1  UNL1        0.2922
     11 C         141.0422  141.8568  164.3964 C.ar    1  UNL1       -0.0003
     12 C         142.0140  141.1882  163.4698 C.ar    1  UNL1       -0.0003
     13 C         142.3391  141.8134  162.1456 C.ar    1  UNL1       -0.0043
     14 C         141.6925  143.1071  161.7480 C.ar    1  UNL1       -0.0224
     15 C         140.7206  143.7757  162.6746 C.ar    1  UNL1       -0.0043
     16 C         140.3955  143.1505  163.9988 C.ar    1  UNL1       -0.0003
     17 C         142.0176  143.7322  160.4239 C.3     1  UNL1        0.0251
     18 C         143.0216  143.0862  159.5158 C.3     1  UNL1        0.0215
     19 C         143.3467  143.7114  158.1916 C.3     1  UNL1        0.0689
     20 N         142.6678  144.9825  157.7755 N.3     1  UNL1       -0.2974
     21 C         141.6638  145.6286  158.6836 C.3     1  UNL1        0.0689
     22 C         141.3386  145.0035  160.0077 C.3     1  UNL1        0.0215
     23 H         142.1872  144.7859  156.8976 H       1  UNL1        0.1232
     24 C         139.3217  139.4020  164.5142 C.ar    1  UNL1       -0.0040
     25 C         139.8408  138.0786  164.0354 C.ar    1  UNL1       -0.0003
     26 C         139.3056  137.4764  162.7702 C.ar    1  UNL1       -0.0000
     27 C         138.2514  138.1975  161.9837 C.ar    1  UNL1       -0.0000
     28 C         137.7323  139.5209  162.4625 C.ar    1  UNL1       -0.0000
     29 C         138.2675  140.1231  163.7278 C.ar    1  UNL1       -0.0003
     30 C         139.5318  139.3791  167.1037 C.3     1  UNL1        0.0289
     31 C         138.1012  139.2089  167.5217 C.3     1  UNL1        0.0364
     32 O         136.1890  137.5243  168.0273 O.3     1  UNL1       -0.3820
     33 C         137.3734  137.9363  167.2042 C.3     1  UNL1        0.1375
     34 H         135.8383  136.6846  167.6915 H       1  UNL1        0.2104
@<TRIPOS>BOND
     1    32    33    1
     2    33    31    1
     3    31    30    1
     4    30     1    1
     5     1     2    2
     6     2     3    1
     7     3     4   ar
     8     4     5   ar
     9     5     6   ar
    10     6     7    1
    11     6     8   ar
    12     8     9   ar
    13     2    11    1
    14    11    12   ar
    15    12    13   ar
    16    13    14   ar
    17    14    17    1
    18    17    18    1
    19    18    19    1
    20    19    20    1
    21    20    21    1
    22    21    22    1
    23    14    15   ar
    24    15    16   ar
    25     1    24    1
    26    24    25   ar
    27    25    26   ar
    28    26    27   ar
    29    27    28   ar
    30    28    29   ar
    31     9     3   ar
    32    16    11   ar
    33    29    24   ar
    34    22    17    1
    35    32    34    1
    36     7    10    1
    37    20    23    1
@<TRIPOS>MOLECULE
*****
 34 37 0 0 0
SMALL
GASTEIGER

@<TRIPOS>ATOM
      1 C         141.5914  141.6030  164.9964 C.2     1  UNL1       -0.0221
      2 C         140.4268  140.9600  164.3034 C.2     1  UNL1       -0.0040
      3 C         139.6334  139.8953  165.0013 C.ar    1  UNL1       -0.0001
      4 C         138.7243  140.2607  166.1371 C.ar    1  UNL1        0.0031
      5 C         137.9309  139.1960  166.8349 C.ar    1  UNL1        0.0366
      6 C         138.0465  137.7661  166.3969 C.ar    1  UNL1        0.1337
      7 O         137.2531  136.7014  167.0948 O.3     1  UNL1       -0.5055
      8 C         138.9556  137.4007  165.2611 C.ar    1  UNL1        0.0366
      9 C         139.7490  138.4654  164.5633 C.ar    1  UNL1        0.0031
     10 H         136.6852  136.9296  167.8043 H       1  UNL1        0.2922
     11 C         140.0557  141.3816  162.9125 C.ar    1  UNL1       -0.0003
     12 C         140.7466  140.7652  161.7325 C.ar    1  UNL1       -0.0003
     13 C         140.3754  141.1868  160.3416 C.ar    1  UNL1       -0.0043
     14 C         139.3133  142.2248  160.1308 C.ar    1  UNL1       -0.0224
     15 C         138.6223  142.8412  161.3109 C.ar    1  UNL1       -0.0043
     16 C         138.9935  142.4196  162.7018 C.ar    1  UNL1       -0.0003
     17 C         138.9421  142.6463  158.7400 C.3     1  UNL1        0.0251
     18 C         139.6914  143.7588  158.0683 C.3     1  UNL1        0.0215
     19 C         139.3202  144.1804  156.6775 C.3     1  UNL1        0.0689
     20 N         138.1998  143.4895  155.9582 N.3     1  UNL1       -0.2974
     21 C         137.4505  142.3770  156.6299 C.3     1  UNL1        0.0689
     22 C         137.8217  141.9555  158.0207 C.3     1  UNL1        0.0215
     23 H         138.5944  143.1031  155.1007 H       1  UNL1        0.1232
     24 C         142.3849  142.6676  164.2985 C.ar    1  UNL1       -0.0040
     25 C         141.9252  144.0948  164.3409 C.ar    1  UNL1       -0.0003
     26 C         142.7186  145.1593  163.6430 C.ar    1  UNL1       -0.0000
     27 C         143.9719  144.7968  162.9027 C.ar    1  UNL1       -0.0000
     28 C         144.4316  143.3696  162.8603 C.ar    1  UNL1       -0.0000
     29 C         143.6381  142.3051  163.5582 C.ar    1  UNL1       -0.0003
     30 C         141.9626  141.1814  166.3872 C.3     1  UNL1        0.0289
     31 C         142.9565  141.9835  167.1739 C.3     1  UNL1        0.0364
     32 O         143.9768  142.6816  169.4590 O.3     1  UNL1       -0.3820
     33 C         142.9336  141.9438  168.6732 C.3     1  UNL1        0.1375
     34 H         143.8183  142.5531  170.4073 H       1  UNL1        0.2104
@<TRIPOS>BOND
     1    32    33    1
     2    33    31    1
     3    31    30    1
     4    30     1    1
     5     1     2    2
     6     2     3    1
     7     3     4   ar
     8     4     5   ar
     9     5     6   ar
    10     6     7    1
    11     6     8   ar
    12     8     9   ar
    13     2    11    1
    14    11    12   ar
    15    12    13   ar
    16    13    14   ar
    17    14    17    1
    18    17    18    1
    19    18    19    1
    20    19    20    1
    21    20    21    1
    22    21    22    1
    23    14    15   ar
    24    15    16   ar
    25     1    24    1
    26    24    25   ar
    27    25    26   ar
    28    26    27   ar
    29    27    28   ar
    30    28    29   ar
    31     9     3   ar
    32    16    11   ar
    33    29    24   ar
    34    22    17    1
    35    32    34    1
    36     7    10    1
    37    20    23    1
@<TRIPOS>MOLECULE
*****
 34 37 0 0 0
SMALL
GASTEIGER

@<TRIPOS>ATOM
      1 C         142.0394  140.5222  162.0391 C.2     1  UNL1       -0.0221
      2 C         140.7400  140.4757  162.7869 C.2     1  UNL1       -0.0040
      3 C         139.4697  140.1399  162.0632 C.ar    1  UNL1       -0.0001
      4 C         138.8636  141.1299  161.1133 C.ar    1  UNL1        0.0031
      5 C         137.5934  140.7941  160.3896 C.ar    1  UNL1        0.0366
      6 C         136.9293  139.4682  160.6158 C.ar    1  UNL1        0.1337
      7 O         135.6591  139.1324  159.8921 O.3     1  UNL1       -0.5055
      8 C         137.5355  138.4782  161.5657 C.ar    1  UNL1        0.0366
      9 C         138.8057  138.8140  162.2894 C.ar    1  UNL1        0.0031
     10 H         135.2804  139.7508  159.2987 H       1  UNL1        0.2922
     11 C         140.7107  140.7650  164.2584 C.ar    1  UNL1       -0.0003
     12 C         140.4672  142.1635  164.7432 C.ar    1  UNL1       -0.0003
     13 C         140.4380  142.4528  166.2147 C.ar    1  UNL1       -0.0043
     14 C         140.6522  141.3436  167.2015 C.ar    1  UNL1       -0.0224
     15 C         140.8957  139.9451  166.7168 C.ar    1  UNL1       -0.0043
     16 C         140.9250  139.6558  165.2453 C.ar    1  UNL1       -0.0003
     17 C         140.6229  141.6329  168.6731 C.3     1  UNL1        0.0251
     18 C         140.3288  143.0213  169.1588 C.3     1  UNL1        0.0215
     19 C         140.2996  143.3106  170.6303 C.3     1  UNL1        0.0689
     20 N         140.5644  142.2115  171.6162 N.3     1  UNL1       -0.2974
     21 C         140.8585  140.8231  171.1305 C.3     1  UNL1        0.0689
     22 C         140.8878  140.5338  169.6589 C.3     1  UNL1        0.0215
     23 H         139.7398  142.1462  172.2129 H       1  UNL1        0.1232
     24 C         143.3097  140.8580  162.7628 C.ar    1  UNL1       -0.0040
     25 C         143.8024  142.2744  162.7954 C.ar    1  UNL1       -0.0003
     26 C         145.0726  142.6102  163.5191 C.ar    1  UNL1       -0.0000
     27 C         145.8501  141.5295  164.2103 C.ar    1  UNL1       -0.0000
     28 C         145.3574  140.1132  164.1778 C.ar    1  UNL1       -0.0000
     29 C         144.0872  139.7774  163.4540 C.ar    1  UNL1       -0.0003
     30 C         142.0687  140.2329  160.5675 C.3     1  UNL1        0.0289
     31 C         142.0294  138.8145  160.0811 C.3     1  UNL1        0.0364
     32 O         141.8092  137.0834  162.0060 O.3     1  UNL1       -0.3820
     33 C         142.6216  137.7184  160.9166 C.3     1  UNL1        0.1375
     34 H         142.3369  136.3985  162.4455 H       1  UNL1        0.2104
@<TRIPOS>BOND
     1    32    33    1
     2    33    31    1
     3    31    30    1
     4    30     1    1
     5     1     2    2
     6     2     3    1
     7     3     4   ar
     8     4     5   ar
     9     5     6   ar
    10     6     7    1
    11     6     8   ar
    12     8     9   ar
    13     2    11    1
    14    11    12   ar
    15    12    13   ar
    16    13    14   ar
    17    14    17    1
    18    17    18    1
    19    18    19    1
    20    19    20    1
    21    20    21    1
    22    21    22    1
    23    14    15   ar
    24    15    16   ar
    25     1    24    1
    26    24    25   ar
    27    25    26   ar
    28    26    27   ar
    29    27    28   ar
    30    28    29   ar
    31     9     3   ar
    32    16    11   ar
    33    29    24   ar
    34    22    17    1
    35    32    34    1
    36     7    10    1
    37    20    23    1
@<TRIPOS>MOLECULE
*****
 34 37 0 0 0
SMALL
GASTEIGER

@<TRIPOS>ATOM
      1 C         140.4688  140.1515  161.8962 C.2     1  UNL1       -0.0221
      2 C         140.9784  141.4891  162.3444 C.2     1  UNL1       -0.0040
      3 C         141.2027  142.5811  161.3407 C.ar    1  UNL1       -0.0001
      4 C         142.4378  142.5753  160.4896 C.ar    1  UNL1        0.0031
      5 C         142.6620  143.6672  159.4860 C.ar    1  UNL1        0.0366
      6 C         141.6512  144.7649  159.3335 C.ar    1  UNL1        0.1337
      7 O         141.8755  145.8569  158.3297 O.3     1  UNL1       -0.5055
      8 C         140.4161  144.7707  160.1846 C.ar    1  UNL1        0.0366
      9 C         140.1919  143.6788  161.1882 C.ar    1  UNL1        0.0031
     10 H         142.6470  145.8533  157.7981 H       1  UNL1        0.2922
     11 C         141.2638  141.7348  163.7964 C.ar    1  UNL1       -0.0003
     12 C         140.2289  142.3875  164.6641 C.ar    1  UNL1       -0.0003
     13 C         140.5142  142.6332  166.1161 C.ar    1  UNL1       -0.0043
     14 C         141.8344  142.2263  166.7003 C.ar    1  UNL1       -0.0224
     15 C         142.8694  141.5737  165.8326 C.ar    1  UNL1       -0.0043
     16 C         142.5841  141.3279  164.3806 C.ar    1  UNL1       -0.0003
     17 C         142.1198  142.4721  168.1523 C.3     1  UNL1        0.0251
     18 C         143.5155  142.3163  168.6792 C.3     1  UNL1        0.0215
     19 C         143.8008  142.5621  170.1312 C.3     1  UNL1        0.0689
     20 N         142.6904  142.9636  171.0562 N.3     1  UNL1       -0.2974
     21 C         141.2946  143.1194  170.5293 C.3     1  UNL1        0.0689
     22 C         141.0093  142.8737  169.0774 C.3     1  UNL1        0.0215
     23 H         142.9545  143.8620  171.4607 H       1  UNL1        0.1232
     24 C         140.2445  139.0595  162.8999 C.ar    1  UNL1       -0.0040
     25 C         138.9925  139.0455  163.7257 C.ar    1  UNL1       -0.0003
     26 C         138.7682  137.9535  164.7294 C.ar    1  UNL1       -0.0000
     27 C         139.7961  136.8756  164.9072 C.ar    1  UNL1       -0.0000
     28 C         141.0482  136.8896  164.0814 C.ar    1  UNL1       -0.0000
     29 C         141.2724  137.9816  163.0777 C.ar    1  UNL1       -0.0003
     30 C         140.1835  139.9057  160.4442 C.3     1  UNL1        0.0289
     31 C         138.8805  140.3520  159.8499 C.3     1  UNL1        0.0364
     32 O         136.9752  140.6131  161.5968 O.3     1  UNL1       -0.3820
     33 C         137.5855  139.8782  160.4404 C.3     1  UNL1        0.1375
     34 H         136.1468  140.1793  161.8547 H       1  UNL1        0.2104
@<TRIPOS>BOND
     1    32    33    1
     2    33    31    1
     3    31    30    1
     4    30     1    1
     5     1     2    2
     6     2     3    1
     7     3     4   ar
     8     4     5   ar
     9     5     6   ar
    10     6     7    1
    11     6     8   ar
    12     8     9   ar
    13     2    11    1
    14    11    12   ar
    15    12    13   ar
    16    13    14   ar
    17    14    17    1
    18    17    18    1
    19    18    19    1
    20    19    20    1
    21    20    21    1
    22    21    22    1
    23    14    15   ar
    24    15    16   ar
    25     1    24    1
    26    24    25   ar
    27    25    26   ar
    28    26    27   ar
    29    27    28   ar
    30    28    29   ar
    31     9     3   ar
    32    16    11   ar
    33    29    24   ar
    34    22    17    1
    35    32    34    1
    36     7    10    1
    37    20    23    1
@<TRIPOS>MOLECULE
*****
 34 37 0 0 0
SMALL
GASTEIGER

@<TRIPOS>ATOM
      1 C         139.9398  142.2452  161.9544 C.2     1  UNL1       -0.0221
      2 C         140.9547  141.1957  162.2984 C.2     1  UNL1       -0.0040
      3 C         141.5727  140.3655  161.2126 C.ar    1  UNL1       -0.0001
      4 C         142.9121  140.7413  160.6515 C.ar    1  UNL1        0.0031
      5 C         143.5300  139.9111  159.5657 C.ar    1  UNL1        0.0366
      6 C         142.8086  138.7052  159.0410 C.ar    1  UNL1        0.1337
      7 O         143.4267  137.8751  157.9552 O.3     1  UNL1       -0.5055
      8 C         141.4693  138.3294  159.6021 C.ar    1  UNL1        0.0366
      9 C         140.8513  139.1596  160.6878 C.ar    1  UNL1        0.0031
     10 H         144.2633  138.1098  157.6047 H       1  UNL1        0.2922
     11 C         141.3516  140.9762  163.7282 C.ar    1  UNL1       -0.0003
     12 C         140.5163  140.0983  164.6121 C.ar    1  UNL1       -0.0003
     13 C         140.9132  139.8789  166.0419 C.ar    1  UNL1       -0.0043
     14 C         142.1454  140.5373  166.5877 C.ar    1  UNL1       -0.0224
     15 C         142.9808  141.4153  165.7037 C.ar    1  UNL1       -0.0043
     16 C         142.5839  141.6347  164.2740 C.ar    1  UNL1       -0.0003
     17 C         142.5424  140.3179  168.0175 C.3     1  UNL1        0.0251
     18 C         142.4557  138.9460  168.6179 C.3     1  UNL1        0.0215
     19 C         142.8526  138.7266  170.0477 C.3     1  UNL1        0.0689
     20 N         143.3362  139.8790  170.8771 N.3     1  UNL1       -0.2974
     21 C         143.4229  141.2509  170.2768 C.3     1  UNL1        0.0689
     22 C         143.0260  141.4704  168.8470 C.3     1  UNL1        0.0215
     23 H         144.2741  139.6380  171.1976 H       1  UNL1        0.1232
     24 C         139.3217  143.0754  163.0402 C.ar    1  UNL1       -0.0040
     25 C         140.0733  144.2399  163.6138 C.ar    1  UNL1       -0.0003
     26 C         139.4553  145.0700  164.6996 C.ar    1  UNL1       -0.0000
     27 C         138.0856  144.7356  165.2117 C.ar    1  UNL1       -0.0000
     28 C         137.3341  143.5711  164.6381 C.ar    1  UNL1       -0.0000
     29 C         137.9521  142.7410  163.5524 C.ar    1  UNL1       -0.0003
     30 C         139.5428  142.4647  160.5246 C.3     1  UNL1        0.0289
     31 C         140.0568  143.6603  159.7786 C.3     1  UNL1        0.0364
     32 O         141.6382  145.5457  160.6118 O.3     1  UNL1       -0.3820
     33 C         141.4419  144.1714  160.0439 C.3     1  UNL1        0.1375
     34 H         142.5865  145.7180  160.7211 H       1  UNL1        0.2104
@<TRIPOS>BOND
     1    32    33    1
     2    33    31    1
     3    31    30    1
     4    30     1    1
     5     1     2    2
     6     2     3    1
     7     3     4   ar
     8     4     5   ar
     9     5     6   ar
    10     6     7    1
    11     6     8   ar
    12     8     9   ar
    13     2    11    1
    14    11    12   ar
    15    12    13   ar
    16    13    14   ar
    17    14    17    1
    18    17    18    1
    19    18    19    1
    20    19    20    1
    21    20    21    1
    22    21    22    1
    23    14    15   ar
    24    15    16   ar
    25     1    24    1
    26    24    25   ar
    27    25    26   ar
    28    26    27   ar
    29    27    28   ar
    30    28    29   ar
    31     9     3   ar
    32    16    11   ar
    33    29    24   ar
    34    22    17    1
    35    32    34    1
    36     7    10    1
    37    20    23    1
@<TRIPOS>MOLECULE
*****
 34 37 0 0 0
SMALL
GASTEIGER

@<TRIPOS>ATOM
      1 C         141.9042  140.3036  163.9223 C.2     1  UNL1       -0.0221
      2 C         140.4915  139.9657  163.5484 C.2     1  UNL1       -0.0040
      3 C         139.5881  139.3066  164.5483 C.ar    1  UNL1       -0.0001
      4 C         139.4478  137.8133  164.5623 C.ar    1  UNL1        0.0031
      5 C         138.5445  137.1543  165.5621 C.ar    1  UNL1        0.0366
      6 C         137.7816  137.9886  166.5479 C.ar    1  UNL1        0.1337
      7 O         136.8782  137.3295  167.5478 O.3     1  UNL1       -0.5055
      8 C         137.9218  139.4819  166.5339 C.ar    1  UNL1        0.0366
      9 C         138.8251  140.1409  165.5340 C.ar    1  UNL1        0.0031
     10 H         136.7906  136.3966  167.5566 H       1  UNL1        0.2922
     11 C         139.9820  140.2868  162.1746 C.ar    1  UNL1       -0.0003
     12 C         139.4913  141.6691  161.8607 C.ar    1  UNL1       -0.0003
     13 C         138.9818  141.9902  160.4870 C.ar    1  UNL1       -0.0043
     14 C         138.9629  140.9290  159.4270 C.ar    1  UNL1       -0.0224
     15 C         139.4536  139.5466  159.7408 C.ar    1  UNL1       -0.0043
     16 C         139.9631  139.2255  161.1146 C.ar    1  UNL1       -0.0003
     17 C         138.4534  141.2501  158.0532 C.3     1  UNL1        0.0251
     18 C         138.5961  140.2472  156.9470 C.3     1  UNL1        0.0215
     19 C         138.0866  140.5683  155.5732 C.3     1  UNL1        0.0689
     20 N         137.4344  141.8923  155.3057 N.3     1  UNL1       -0.2974
     21 C         137.2917  142.8953  156.4119 C.3     1  UNL1        0.0689
     22 C         137.8012  142.5742  157.7857 C.3     1  UNL1        0.0215
     23 H         136.4937  141.6937  154.9651 H       1  UNL1        0.1232
     24 C         142.8075  140.9627  162.9224 C.ar    1  UNL1       -0.0040
     25 C         143.0359  142.4441  162.9801 C.ar    1  UNL1       -0.0003
     26 C         143.9392  143.1031  161.9802 C.ar    1  UNL1       -0.0000
     27 C         144.6141  142.2808  160.9228 C.ar    1  UNL1       -0.0000
     28 C         144.3858  140.7994  160.8651 C.ar    1  UNL1       -0.0000
     29 C         143.4825  140.1404  161.8650 C.ar    1  UNL1       -0.0003
     30 C         142.4137  139.9825  165.2961 C.3     1  UNL1        0.0289
     31 C         142.9518  138.6147  165.5957 C.3     1  UNL1        0.0364
     32 O         144.5794  137.2324  167.0756 O.3     1  UNL1       -0.3820
     33 C         143.5621  138.3258  166.9351 C.3     1  UNL1        0.1375
     34 H         144.8702  137.1782  167.9994 H       1  UNL1        0.2104
@<TRIPOS>BOND
     1    32    33    1
     2    33    31    1
     3    31    30    1
     4    30     1    1
     5     1     2    2
     6     2     3    1
     7     3     4   ar
     8     4     5   ar
     9     5     6   ar
    10     6     7    1
    11     6     8   ar
    12     8     9   ar
    13     2    11    1
    14    11    12   ar
    15    12    13   ar
    16    13    14   ar
    17    14    17    1
    18    17    18    1
    19    18    19    1
    20    19    20    1
    21    20    21    1
    22    21    22    1
    23    14    15   ar
    24    15    16   ar
    25     1    24    1
    26    24    25   ar
    27    25    26   ar
    28    26    27   ar
    29    27    28   ar
    30    28    29   ar
    31     9     3   ar
    32    16    11   ar
    33    29    24   ar
    34    22    17    1
    35    32    34    1
    36     7    10    1
    37    20    23    1
@<TRIPOS>MOLECULE
*****
 34 37 0 0 0
SMALL
GASTEIGER

@<TRIPOS>ATOM
      1 C         142.1414  140.3708  162.2600 C.2     1  UNL1       -0.0221
      2 C         140.6464  140.2492  162.2592 C.2     1  UNL1       -0.0040
      3 C         139.9338  139.7502  163.4813 C.ar    1  UNL1       -0.0001
      4 C         139.6968  138.2803  163.6635 C.ar    1  UNL1        0.0031
      5 C         138.9842  137.7815  164.8855 C.ar    1  UNL1        0.0366
      6 C         138.5087  138.7524  165.9253 C.ar    1  UNL1        0.1337
      7 O         137.7962  138.2535  167.1474 O.3     1  UNL1       -0.5055
      8 C         138.7458  140.2223  165.7431 C.ar    1  UNL1        0.0366
      9 C         139.4583  140.7212  164.5211 C.ar    1  UNL1        0.0031
     10 H         137.6481  137.3353  167.2612 H       1  UNL1        0.2922
     11 C         139.8638  140.6265  161.0364 C.ar    1  UNL1       -0.0003
     12 C         139.4328  142.0485  160.8311 C.ar    1  UNL1       -0.0003
     13 C         138.6502  142.4258  159.6083 C.ar    1  UNL1       -0.0043
     14 C         138.2987  141.3812  158.5908 C.ar    1  UNL1       -0.0224
     15 C         138.7298  139.9592  158.7962 C.ar    1  UNL1       -0.0043
     16 C         139.5123  139.5818  160.0190 C.ar    1  UNL1       -0.0003
     17 C         137.5162  141.7586  157.3681 C.3     1  UNL1        0.0251
     18 C         137.7819  143.0653  156.6813 C.3     1  UNL1        0.0215
     19 C         136.9993  143.4427  155.4585 C.3     1  UNL1        0.0689
     20 N         135.9511  142.5133  154.9225 N.3     1  UNL1       -0.2974
     21 C         135.6854  141.2064  155.6092 C.3     1  UNL1        0.0689
     22 C         136.4679  140.8291  156.8320 C.3     1  UNL1        0.0215
     23 H         136.2161  142.2929  153.9625 H       1  UNL1        0.1232
     24 C         142.8540  140.8697  161.0379 C.ar    1  UNL1       -0.0040
     25 C         143.1652  142.3301  160.8951 C.ar    1  UNL1       -0.0003
     26 C         143.8777  142.8290  159.6730 C.ar    1  UNL1       -0.0000
     27 C         144.2790  141.8675  158.5939 C.ar    1  UNL1       -0.0000
     28 C         143.9678  140.4071  158.7368 C.ar    1  UNL1       -0.0000
     29 C         143.2553  139.9082  159.9588 C.ar    1  UNL1       -0.0003
     30 C         142.9240  139.9934  163.4828 C.3     1  UNL1        0.0289
     31 C         144.4137  139.8378  163.4014 C.3     1  UNL1        0.0364
     32 O         146.0631  141.7791  162.8906 O.3     1  UNL1       -0.3820
     33 C         145.3102  140.9408  163.8807 C.3     1  UNL1        0.1375
     34 H         146.5915  142.4411  163.3632 H       1  UNL1        0.2104
@<TRIPOS>BOND
     1    32    33    1
     2    33    31    1
     3    31    30    1
     4    30     1    1
     5     1     2    2
     6     2     3    1
     7     3     4   ar
     8     4     5   ar
     9     5     6   ar
    10     6     7    1
    11     6     8   ar
    12     8     9   ar
    13     2    11    1
    14    11    12   ar
    15    12    13   ar
    16    13    14   ar
    17    14    17    1
    18    17    18    1
    19    18    19    1
    20    19    20    1
    21    20    21    1
    22    21    22    1
    23    14    15   ar
    24    15    16   ar
    25     1    24    1
    26    24    25   ar
    27    25    26   ar
    28    26    27   ar
    29    27    28   ar
    30    28    29   ar
    31     9     3   ar
    32    16    11   ar
    33    29    24   ar
    34    22    17    1
    35    32    34    1
    36     7    10    1
    37    20    23    1
