@<TRIPOS>MOLECULE
*****
 34 38 0 0 0
SMALL
GASTEIGER

@<TRIPOS>ATOM
      1 C         141.8644  137.7261  163.3472 C.3     1  UNL1        0.0721
      2 N         142.8201  138.8696  163.5171 N.3     1  UNL1       -0.2727
      3 C         144.0224  139.1479  162.6646 C.3     1  UNL1        0.0721
      4 C         144.6867  140.3859  163.1900 C.3     1  UNL1        0.0190
      5 C         143.8949  140.8728  164.3673 C.3     1  UNL1        0.0201
      6 C         144.7626  142.0609  164.6594 C.3     1  UNL1        0.0061
      7 C         143.5602  141.7826  165.5120 C.3     1  UNL1        0.0237
      8 C         142.7412  139.9356  164.5695 C.3     1  UNL1        0.0724
      9 C         142.6729  142.1472  166.6650 C.ar    1  UNL1       -0.0225
     10 C         141.2320  142.4878  166.4242 C.ar    1  UNL1       -0.0043
     11 C         140.3446  142.8524  167.5773 C.ar    1  UNL1        0.0035
     12 C         140.8981  142.8764  168.9712 C.ar    1  UNL1        0.0714
     13 C         142.3390  142.5359  169.2120 C.ar    1  UNL1        0.0035
     14 C         143.2264  142.1713  168.0590 C.ar    1  UNL1       -0.0043
     15 C         140.0108  143.2410  170.1243 C.3     1  UNL1        0.4186
     16 F         139.1233  143.6056  171.2774 F       1  UNL1       -0.1659
     17 F         140.5311  144.6472  170.0801 F       1  UNL1       -0.1659
     18 F         139.4904  141.8349  170.1684 F       1  UNL1       -0.1659
     19 C         140.8402  137.4410  164.4054 C.3     1  UNL1        0.0182
     20 C         139.3957  137.7597  164.1564 C.3     1  UNL1        0.0135
     21 C         138.8315  137.6502  162.7709 C.3     1  UNL1        0.0652
     22 S         138.0338  138.7821  162.1944 S.3     1  UNL1       -0.0757
     23 C         138.8456  142.5240  162.8306 C.ar    1  UNL1        0.2029
     24 N         138.2478  142.1290  164.1484 N.ar    1  UNL1       -0.1250
     25 N         137.8709  140.6792  164.0705 N.ar    1  UNL1       -0.1220
     26 C         138.2358  140.1782  162.7045 C.ar    1  UNL1        0.1933
     27 N         138.8382  141.3183  161.9382 N.ar    1  UNL1       -0.2860
     28 C         139.3444  141.2625  160.5273 C.3     1  UNL1        0.1341
     29 C         141.9837  143.3883  162.5964 C.3     1  UNL1        0.0556
     30 C         140.8029  144.2829  162.3611 C.ar    1  UNL1        0.1001
     31 N         140.8571  145.7319  161.9768 N.ar    1  UNL1       -0.2085
     32 C         139.4483  146.2300  161.8470 C.ar    1  UNL1        0.2849
     33 O         138.5233  145.0890  162.1510 O.2     1  UNL1       -0.4283
     34 C         139.3605  143.8856  162.4687 C.ar    1  UNL1        0.1964
@<TRIPOS>BOND
     1    29    30    1
     2    30    31   ar
     3    31    32   ar
     4    32    33   ar
     5    33    34   ar
     6    34    23    1
     7    23    24   ar
     8    24    25   ar
     9    25    26   ar
    10    26    22    1
    11    22    21    1
    12    21    20    1
    13    20    19    1
    14    19     1    1
    15     1     2    1
    16     2     3    1
    17     3     4    1
    18     5     4    1
    19     5     6    1
    20     6     7    1
    21     7     9    1
    22     9    10   ar
    23    10    11   ar
    24    11    12   ar
    25    12    15    1
    26    15    16    1
    27    15    17    1
    28    15    18    1
    29    12    13   ar
    30    13    14   ar
    31     5     8    1
    32    26    27   ar
    33    27    28    1
    34    34    30   ar
    35    27    23   ar
    36     8     2    1
    37     7     5    1
    38    14     9   ar
@<TRIPOS>MOLECULE
*****
 34 38 0 0 0
SMALL
GASTEIGER

@<TRIPOS>ATOM
      1 C         144.1388  143.6467  162.4368 C.3     1  UNL1        0.0721
      2 N         144.2040  142.2806  163.0528 N.3     1  UNL1       -0.2727
      3 C         144.9056  141.0864  162.4769 C.3     1  UNL1        0.0721
      4 C         144.7142  139.9366  163.4210 C.3     1  UNL1        0.0190
      5 C         143.8944  140.4201  164.5803 C.3     1  UNL1        0.0201
      6 C         143.8735  139.1120  165.3141 C.3     1  UNL1        0.0061
      7 C         143.1719  140.3063  165.8899 C.3     1  UNL1        0.0237
      8 C         143.5790  141.8688  164.3527 C.3     1  UNL1        0.0724
      9 C         142.3497  140.9300  166.9785 C.ar    1  UNL1       -0.0225
     10 C         140.9937  140.3776  167.3043 C.ar    1  UNL1       -0.0043
     11 C         140.1715  141.0013  168.3928 C.ar    1  UNL1        0.0035
     12 C         140.7053  142.1775  169.1555 C.ar    1  UNL1        0.0714
     13 C         142.0613  142.7298  168.8297 C.ar    1  UNL1        0.0035
     14 C         142.8835  142.1061  167.7412 C.ar    1  UNL1       -0.0043
     15 C         139.8831  142.8012  170.2440 C.3     1  UNL1        0.4186
     16 F         139.0609  143.4250  171.3326 F       1  UNL1       -0.1659
     17 F         139.0088  141.5829  170.2817 F       1  UNL1       -0.1659
     18 F         140.7574  144.0194  170.2064 F       1  UNL1       -0.1659
     19 C         143.1361  144.6460  162.9328 C.3     1  UNL1        0.0182
     20 C         141.8111  144.7846  162.2434 C.3     1  UNL1        0.0135
     21 C         140.6061  145.2309  163.0171 C.3     1  UNL1        0.0652
     22 S         139.2302  144.9154  162.5100 S.3     1  UNL1       -0.0757
     23 C         138.2710  141.2695  163.4334 C.ar    1  UNL1        0.2029
     24 N         137.4285  141.4904  162.2122 N.ar    1  UNL1       -0.1250
     25 N         137.6852  142.8830  161.7177 N.ar    1  UNL1       -0.1220
     26 C         138.6865  143.5229  162.6332 C.ar    1  UNL1        0.1933
     27 N         139.0485  142.5256  163.6936 N.ar    1  UNL1       -0.2860
     28 C         140.0178  142.7458  164.8169 C.3     1  UNL1        0.1341
     29 C         139.2446  138.3378  162.3812 C.3     1  UNL1        0.0556
     30 C         138.7739  138.6655  163.7671 C.ar    1  UNL1        0.1001
     31 N         138.6680  137.7031  164.9129 N.ar    1  UNL1       -0.2085
     32 C         138.1551  138.4559  166.1046 C.ar    1  UNL1        0.2849
     33 O         137.9440  139.8834  165.6954 O.2     1  UNL1       -0.4283
     34 C         138.3264  140.0130  164.2508 C.ar    1  UNL1        0.1964
@<TRIPOS>BOND
     1    29    30    1
     2    30    31   ar
     3    31    32   ar
     4    32    33   ar
     5    33    34   ar
     6    34    23    1
     7    23    24   ar
     8    24    25   ar
     9    25    26   ar
    10    26    22    1
    11    22    21    1
    12    21    20    1
    13    20    19    1
    14    19     1    1
    15     1     2    1
    16     2     3    1
    17     3     4    1
    18     5     4    1
    19     5     6    1
    20     6     7    1
    21     7     9    1
    22     9    10   ar
    23    10    11   ar
    24    11    12   ar
    25    12    15    1
    26    15    16    1
    27    15    17    1
    28    15    18    1
    29    12    13   ar
    30    13    14   ar
    31     5     8    1
    32    26    27   ar
    33    27    28    1
    34    34    30   ar
    35    27    23   ar
    36     8     2    1
    37     7     5    1
    38    14     9   ar
@<TRIPOS>MOLECULE
*****
 34 38 0 0 0
SMALL
GASTEIGER

@<TRIPOS>ATOM
      1 C         141.9645  137.6746  163.5112 C.3     1  UNL1        0.0721
      2 N         142.8784  138.8566  163.6453 N.3     1  UNL1       -0.2727
      3 C         144.0562  139.1643  162.7690 C.3     1  UNL1        0.0721
      4 C         144.6805  140.4362  163.2615 C.3     1  UNL1        0.0190
      5 C         143.8885  140.9145  164.4422 C.3     1  UNL1        0.0201
      6 C         144.7145  142.1399  164.6990 C.3     1  UNL1        0.0061
      7 C         143.5367  141.8322  165.5754 C.3     1  UNL1        0.0237
      8 C         142.7747  139.9382  164.6794 C.3     1  UNL1        0.0724
      9 C         142.6536  142.1843  166.7356 C.ar    1  UNL1       -0.0225
     10 C         143.1955  142.1329  168.1333 C.ar    1  UNL1       -0.0043
     11 C         142.3124  142.4850  169.2935 C.ar    1  UNL1        0.0035
     12 C         140.8873  142.8885  169.0559 C.ar    1  UNL1        0.0714
     13 C         140.3454  142.9398  167.6582 C.ar    1  UNL1        0.0035
     14 C         141.2285  142.5877  166.4980 C.ar    1  UNL1       -0.0043
     15 C         140.0042  143.2406  170.2161 C.3     1  UNL1        0.4186
     16 F         139.1210  143.5927  171.3764 F       1  UNL1       -0.1659
     17 F         139.8290  141.7832  170.5251 F       1  UNL1       -0.1659
     18 F         140.1793  144.6979  169.9072 F       1  UNL1       -0.1659
     19 C         140.9326  137.4011  164.5649 C.3     1  UNL1        0.0182
     20 C         139.5188  137.8619  164.3677 C.3     1  UNL1        0.0135
     21 C         138.8258  137.6176  163.0600 C.3     1  UNL1        0.0652
     22 S         138.5342  138.7658  162.1398 S.3     1  UNL1       -0.0757
     23 C         141.1737  141.5843  161.7474 C.ar    1  UNL1        0.2029
     24 N         141.4674  140.7423  160.5412 N.ar    1  UNL1       -0.1250
     25 N         140.5143  139.5840  160.5414 N.ar    1  UNL1       -0.1220
     26 C         139.6317  139.7101  161.7477 C.ar    1  UNL1        0.1933
     27 N         140.0392  140.9464  162.4930 N.ar    1  UNL1       -0.2860
     28 C         139.4208  141.4554  163.7612 C.3     1  UNL1        0.1341
     29 C         143.9695  142.6790  160.4689 C.3     1  UNL1        0.0556
     30 C         143.1741  143.3464  161.5514 C.ar    1  UNL1        0.1001
     31 N         143.5242  144.6342  162.2364 N.ar    1  UNL1       -0.2085
     32 C         142.4554  144.9269  163.2473 C.ar    1  UNL1        0.2849
     33 O         141.4449  143.8200  163.1871 O.2     1  UNL1       -0.4283
     34 C         141.8890  142.8432  162.1390 C.ar    1  UNL1        0.1964
@<TRIPOS>BOND
     1    29    30    1
     2    30    31   ar
     3    31    32   ar
     4    32    33   ar
     5    33    34   ar
     6    34    23    1
     7    23    24   ar
     8    24    25   ar
     9    25    26   ar
    10    26    22    1
    11    22    21    1
    12    21    20    1
    13    20    19    1
    14    19     1    1
    15     1     2    1
    16     2     3    1
    17     3     4    1
    18     5     4    1
    19     5     6    1
    20     6     7    1
    21     7     9    1
    22     9    10   ar
    23    10    11   ar
    24    11    12   ar
    25    12    15    1
    26    15    16    1
    27    15    17    1
    28    15    18    1
    29    12    13   ar
    30    13    14   ar
    31     5     8    1
    32    26    27   ar
    33    27    28    1
    34    34    30   ar
    35    27    23   ar
    36     8     2    1
    37     7     5    1
    38    14     9   ar
@<TRIPOS>MOLECULE
*****
 34 38 0 0 0
SMALL
GASTEIGER

@<TRIPOS>ATOM
      1 C         137.8953  141.0008  162.2787 C.3     1  UNL1        0.0721
      2 N         138.7120  139.8465  162.7794 N.3     1  UNL1       -0.2727
      3 C         138.7812  138.4816  162.1613 C.3     1  UNL1        0.0721
      4 C         139.7148  137.6461  162.9861 C.3     1  UNL1        0.0190
      5 C         140.2225  138.4946  164.1140 C.3     1  UNL1        0.0201
      6 C         141.0878  137.4354  164.7299 C.3     1  UNL1        0.0061
      7 C         141.0185  138.8003  165.3481 C.3     1  UNL1        0.0237
      8 C         139.6027  139.8546  163.9863 C.3     1  UNL1        0.0724
      9 C         141.4381  139.7649  166.4174 C.ar    1  UNL1       -0.0225
     10 C         140.5775  139.9609  167.6303 C.ar    1  UNL1       -0.0043
     11 C         140.9971  140.9254  168.6997 C.ar    1  UNL1        0.0035
     12 C         142.2772  141.6940  168.5562 C.ar    1  UNL1        0.0714
     13 C         143.1378  141.4980  167.3433 C.ar    1  UNL1        0.0035
     14 C         142.7182  140.5334  166.2739 C.ar    1  UNL1       -0.0043
     15 C         142.6968  142.6585  169.6256 C.3     1  UNL1        0.4186
     16 F         143.1164  143.6231  170.6950 F       1  UNL1       -0.1659
     17 F         141.4215  143.4247  169.4348 F       1  UNL1       -0.1659
     18 F         143.9721  141.8923  169.8163 F       1  UNL1       -0.1659
     19 C         137.1575  141.8746  163.2494 C.3     1  UNL1        0.0182
     20 C         137.7872  143.1423  163.7459 C.3     1  UNL1        0.0135
     21 C         137.9481  144.3121  162.8210 C.3     1  UNL1        0.0652
     22 S         139.2014  145.1351  162.8639 S.3     1  UNL1       -0.0757
     23 C         142.5829  143.2786  162.4348 C.ar    1  UNL1        0.2029
     24 N         142.4500  143.9507  161.1005 N.ar    1  UNL1       -0.1250
     25 N         141.1671  144.7279  161.0987 N.ar    1  UNL1       -0.1220
     26 C         140.5071  144.5363  162.4321 C.ar    1  UNL1        0.1933
     27 N         141.3822  143.6405  163.2579 N.ar    1  UNL1       -0.2860
     28 C         141.1052  143.1864  164.6603 C.3     1  UNL1        0.1341
     29 C         142.7926  140.0537  161.9818 C.3     1  UNL1        0.0556
     30 C         143.8138  140.9167  162.6616 C.ar    1  UNL1        0.1001
     31 N         145.1108  140.4490  163.2526 N.ar    1  UNL1       -0.2085
     32 C         145.8159  141.6422  163.8260 C.ar    1  UNL1        0.2849
     33 O         144.9548  142.8474  163.5894 O.2     1  UNL1       -0.4283
     34 C         143.7175  142.3991  162.8698 C.ar    1  UNL1        0.1964
@<TRIPOS>BOND
     1    29    30    1
     2    30    31   ar
     3    31    32   ar
     4    32    33   ar
     5    33    34   ar
     6    34    23    1
     7    23    24   ar
     8    24    25   ar
     9    25    26   ar
    10    26    22    1
    11    22    21    1
    12    21    20    1
    13    20    19    1
    14    19     1    1
    15     1     2    1
    16     2     3    1
    17     3     4    1
    18     5     4    1
    19     5     6    1
    20     6     7    1
    21     7     9    1
    22     9    10   ar
    23    10    11   ar
    24    11    12   ar
    25    12    15    1
    26    15    16    1
    27    15    17    1
    28    15    18    1
    29    12    13   ar
    30    13    14   ar
    31     5     8    1
    32    26    27   ar
    33    27    28    1
    34    34    30   ar
    35    27    23   ar
    36     8     2    1
    37     7     5    1
    38    14     9   ar
@<TRIPOS>MOLECULE
*****
 34 38 0 0 0
SMALL
GASTEIGER

@<TRIPOS>ATOM
      1 C         141.6701  143.2014  160.8143 C.3     1  UNL1        0.0721
      2 N         142.9335  142.7672  161.4964 N.3     1  UNL1       -0.2727
      3 C         144.3102  142.7919  160.9013 C.3     1  UNL1        0.0721
      4 C         145.2694  142.2720  161.9306 C.3     1  UNL1        0.0190
      5 C         144.4856  141.9258  163.1618 C.3     1  UNL1        0.0201
      6 C         145.6601  141.4578  163.9690 C.3     1  UNL1        0.0061
      7 C         144.2834  141.4330  164.5641 C.3     1  UNL1        0.0237
      8 C         143.0419  142.2319  162.8935 C.3     1  UNL1        0.0724
      9 C         143.3718  141.1341  165.7172 C.ar    1  UNL1       -0.0225
     10 C         143.1321  142.1728  166.7725 C.ar    1  UNL1       -0.0043
     11 C         142.2206  141.8740  167.9256 C.ar    1  UNL1        0.0035
     12 C         141.5487  140.5365  168.0234 C.ar    1  UNL1        0.0714
     13 C         141.7884  139.4978  166.9681 C.ar    1  UNL1        0.0035
     14 C         142.7000  139.7966  165.8150 C.ar    1  UNL1       -0.0043
     15 C         140.6371  140.2376  169.1765 C.3     1  UNL1        0.4186
     16 F         139.7255  139.9388  170.3297 F       1  UNL1       -0.1659
     17 F         141.5611  139.1438  169.6235 F       1  UNL1       -0.1659
     18 F         139.7131  141.3314  168.7295 F       1  UNL1       -0.1659
     19 C         141.4838  144.6379  160.4247 C.3     1  UNL1        0.0182
     20 C         140.1723  145.3201  160.6793 C.3     1  UNL1        0.0135
     21 C         139.8441  145.8257  162.0528 C.3     1  UNL1        0.0652
     22 S         138.8286  145.1094  162.8929 S.3     1  UNL1       -0.0757
     23 C         139.3949  141.4165  163.9450 C.ar    1  UNL1        0.2029
     24 N         140.0246  142.1453  165.0949 N.ar    1  UNL1       -0.1250
     25 N         139.8891  143.6174  164.8408 N.ar    1  UNL1       -0.1220
     26 C         139.1757  143.7984  163.5337 C.ar    1  UNL1        0.1933
     27 N         138.8703  142.4382  162.9801 N.ar    1  UNL1       -0.2860
     28 C         138.1642  142.1502  161.6884 C.3     1  UNL1        0.1341
     29 C         138.1657  139.3270  166.1296 C.3     1  UNL1        0.0556
     30 C         138.7406  138.9670  164.7917 C.ar    1  UNL1        0.1001
     31 N         138.8515  137.5834  164.2230 N.ar    1  UNL1       -0.2085
     32 C         139.4849  137.6888  162.8675 C.ar    1  UNL1        0.2849
     33 O         139.7656  139.1374  162.5984 O.2     1  UNL1       -0.4283
     34 C         139.3056  139.9275  163.7876 C.ar    1  UNL1        0.1964
@<TRIPOS>BOND
     1    29    30    1
     2    30    31   ar
     3    31    32   ar
     4    32    33   ar
     5    33    34   ar
     6    34    23    1
     7    23    24   ar
     8    24    25   ar
     9    25    26   ar
    10    26    22    1
    11    22    21    1
    12    21    20    1
    13    20    19    1
    14    19     1    1
    15     1     2    1
    16     2     3    1
    17     3     4    1
    18     5     4    1
    19     5     6    1
    20     6     7    1
    21     7     9    1
    22     9    10   ar
    23    10    11   ar
    24    11    12   ar
    25    12    15    1
    26    15    16    1
    27    15    17    1
    28    15    18    1
    29    12    13   ar
    30    13    14   ar
    31     5     8    1
    32    26    27   ar
    33    27    28    1
    34    34    30   ar
    35    27    23   ar
    36     8     2    1
    37     7     5    1
    38    14     9   ar
@<TRIPOS>MOLECULE
*****
 34 38 0 0 0
SMALL
GASTEIGER

@<TRIPOS>ATOM
      1 C         139.2777  144.7217  163.9667 C.3     1  UNL1        0.0721
      2 N         138.7840  143.3054  163.9871 N.3     1  UNL1       -0.2727
      3 C         137.7680  142.7124  163.0565 C.3     1  UNL1        0.0721
      4 C         137.5757  141.2740  163.4360 C.3     1  UNL1        0.0190
      5 C         138.4728  140.9781  164.6012 C.3     1  UNL1        0.0201
      6 C         138.0756  139.5386  164.7433 C.3     1  UNL1        0.0061
      7 C         139.0916  140.1317  165.6740 C.3     1  UNL1        0.0237
      8 C         139.2196  142.2336  164.9418 C.3     1  UNL1        0.0724
      9 C         140.0354  139.9855  166.8306 C.ar    1  UNL1       -0.0225
     10 C         139.5430  140.1966  168.2317 C.ar    1  UNL1       -0.0043
     11 C         140.4868  140.0504  169.3883 C.ar    1  UNL1        0.0035
     12 C         141.9230  139.6930  169.1439 C.ar    1  UNL1        0.0714
     13 C         142.4153  139.4819  167.7428 C.ar    1  UNL1        0.0035
     14 C         141.4715  139.6281  166.5862 C.ar    1  UNL1       -0.0043
     15 C         142.8667  139.5468  170.3005 C.3     1  UNL1        0.4186
     16 F         143.8106  139.4005  171.4573 F       1  UNL1       -0.1659
     17 F         142.8846  141.0366  170.4743 F       1  UNL1       -0.1659
     18 F         142.8489  138.0570  170.1268 F       1  UNL1       -0.1659
     19 C         140.4065  145.1094  163.0582 C.3     1  UNL1        0.0182
     20 C         141.6619  145.6980  163.6307 C.3     1  UNL1        0.0135
     21 C         142.8244  144.8093  163.9602 C.3     1  UNL1        0.0652
     22 S         143.8022  144.4256  162.8893 S.3     1  UNL1       -0.0757
     23 C         143.8885  140.6823  161.8670 C.ar    1  UNL1        0.2029
     24 N         145.2059  140.8209  162.5706 N.ar    1  UNL1       -0.1250
     25 N         145.3339  142.2401  163.0393 N.ar    1  UNL1       -0.1220
     26 C         144.0956  142.9785  162.6252 C.ar    1  UNL1        0.1933
     27 N         143.2023  142.0157  161.9007 N.ar    1  UNL1       -0.2860
     28 C         141.8587  142.3310  161.3131 C.3     1  UNL1        0.1341
     29 C         141.4137  138.8798  162.9968 C.3     1  UNL1        0.0556
     30 C         142.2140  138.6015  161.7590 C.ar    1  UNL1        0.1001
     31 N         142.0173  137.4458  160.8232 N.ar    1  UNL1       -0.2085
     32 C         143.0332  137.5600  159.7257 C.ar    1  UNL1        0.2849
     33 O         143.8578  138.7863  159.9831 O.2     1  UNL1       -0.4283
     34 C         143.3515  139.4300  161.2397 C.ar    1  UNL1        0.1964
@<TRIPOS>BOND
     1    29    30    1
     2    30    31   ar
     3    31    32   ar
     4    32    33   ar
     5    33    34   ar
     6    34    23    1
     7    23    24   ar
     8    24    25   ar
     9    25    26   ar
    10    26    22    1
    11    22    21    1
    12    21    20    1
    13    20    19    1
    14    19     1    1
    15     1     2    1
    16     2     3    1
    17     3     4    1
    18     5     4    1
    19     5     6    1
    20     6     7    1
    21     7     9    1
    22     9    10   ar
    23    10    11   ar
    24    11    12   ar
    25    12    15    1
    26    15    16    1
    27    15    17    1
    28    15    18    1
    29    12    13   ar
    30    13    14   ar
    31     5     8    1
    32    26    27   ar
    33    27    28    1
    34    34    30   ar
    35    27    23   ar
    36     8     2    1
    37     7     5    1
    38    14     9   ar
@<TRIPOS>MOLECULE
*****
 34 38 0 0 0
SMALL
GASTEIGER

@<TRIPOS>ATOM
      1 C         144.9109  141.3045  162.4454 C.3     1  UNL1        0.0721
      2 N         144.0142  140.1306  162.7058 N.3     1  UNL1       -0.2727
      3 C         143.7638  138.9872  161.7678 C.3     1  UNL1        0.0721
      4 C         142.8054  138.0439  162.4323 C.3     1  UNL1        0.0190
      5 C         142.4634  138.6043  163.7810 C.3     1  UNL1        0.0201
      6 C         141.5359  137.4954  164.1811 C.3     1  UNL1        0.0061
      7 C         141.7863  138.6388  165.1191 C.3     1  UNL1        0.0237
      8 C         143.2106  139.8940  163.9501 C.3     1  UNL1        0.0724
      9 C         141.5400  139.3189  166.4332 C.ar    1  UNL1       -0.0225
     10 C         142.6303  139.3812  167.4614 C.ar    1  UNL1       -0.0043
     11 C         142.3839  140.0613  168.7755 C.ar    1  UNL1        0.0035
     12 C         141.0473  140.6791  169.0613 C.ar    1  UNL1        0.0714
     13 C         139.9570  140.6168  168.0330 C.ar    1  UNL1        0.0035
     14 C         140.2033  139.9367  166.7189 C.ar    1  UNL1       -0.0043
     15 C         140.8010  141.3592  170.3753 C.3     1  UNL1        0.4186
     16 F         140.5546  142.0393  171.6895 F       1  UNL1       -0.1659
     17 F         142.2117  141.0653  170.7919 F       1  UNL1       -0.1659
     18 F         139.3903  141.6530  169.9588 F       1  UNL1       -0.1659
     19 C         145.5389  142.0378  163.5934 C.3     1  UNL1        0.0182
     20 C         144.6844  142.5444  164.7173 C.3     1  UNL1        0.0135
     21 C         144.5190  144.0204  164.9272 C.3     1  UNL1        0.0652
     22 S         143.7218  144.8322  163.9498 S.3     1  UNL1       -0.0757
     23 C         140.6990  142.9491  162.4064 C.ar    1  UNL1        0.2029
     24 N         141.4509  143.3509  161.1723 N.ar    1  UNL1       -0.1250
     25 N         142.6748  144.1052  161.6002 N.ar    1  UNL1       -0.1220
     26 C         142.6793  144.1696  163.0989 C.ar    1  UNL1        0.1933
     27 N         141.4581  143.4551  163.5971 N.ar    1  UNL1       -0.2860
     28 C         141.0652  143.2777  165.0338 C.3     1  UNL1        0.1341
     29 C         137.7528  144.1612  163.1139 C.3     1  UNL1        0.0556
     30 C         138.0593  142.7341  162.7686 C.ar    1  UNL1        0.1001
     31 N         137.0655  141.6134  162.6878 N.ar    1  UNL1       -0.2085
     32 C         137.8055  140.3638  162.3128 C.ar    1  UNL1        0.2849
     33 O         139.2566  140.7120  162.1617 O.2     1  UNL1       -0.4283
     34 C         139.4136  142.1769  162.4434 C.ar    1  UNL1        0.1964
@<TRIPOS>BOND
     1    29    30    1
     2    30    31   ar
     3    31    32   ar
     4    32    33   ar
     5    33    34   ar
     6    34    23    1
     7    23    24   ar
     8    24    25   ar
     9    25    26   ar
    10    26    22    1
    11    22    21    1
    12    21    20    1
    13    20    19    1
    14    19     1    1
    15     1     2    1
    16     2     3    1
    17     3     4    1
    18     5     4    1
    19     5     6    1
    20     6     7    1
    21     7     9    1
    22     9    10   ar
    23    10    11   ar
    24    11    12   ar
    25    12    15    1
    26    15    16    1
    27    15    17    1
    28    15    18    1
    29    12    13   ar
    30    13    14   ar
    31     5     8    1
    32    26    27   ar
    33    27    28    1
    34    34    30   ar
    35    27    23   ar
    36     8     2    1
    37     7     5    1
    38    14     9   ar
@<TRIPOS>MOLECULE
*****
 34 38 0 0 0
SMALL
GASTEIGER

@<TRIPOS>ATOM
      1 C         140.3526  137.6390  162.3624 C.3     1  UNL1        0.0721
      2 N         141.7349  138.1385  162.6617 N.3     1  UNL1       -0.2727
      3 C         142.9267  138.0300  161.7572 C.3     1  UNL1        0.0721
      4 C         144.0965  138.6588  162.4545 C.3     1  UNL1        0.0190
      5 C         143.6278  139.1558  163.7899 C.3     1  UNL1        0.0201
      6 C         144.9535  139.7046  164.2271 C.3     1  UNL1        0.0061
      7 C         143.7618  139.8131  165.1316 C.3     1  UNL1        0.0237
      8 C         142.1682  138.8343  163.9179 C.3     1  UNL1        0.0724
      9 C         143.1512  140.2552  166.4283 C.ar    1  UNL1       -0.0225
     10 C         142.8146  139.2426  167.4826 C.ar    1  UNL1       -0.0043
     11 C         142.2039  139.6847  168.7794 C.ar    1  UNL1        0.0035
     12 C         141.9299  141.1393  169.0219 C.ar    1  UNL1        0.0714
     13 C         142.2664  142.1519  167.9676 C.ar    1  UNL1        0.0035
     14 C         142.8771  141.7098  166.6708 C.ar    1  UNL1       -0.0043
     15 C         141.3192  141.5814  170.3186 C.3     1  UNL1        0.4186
     16 F         140.7085  142.0236  171.6155 F       1  UNL1       -0.1659
     17 F         141.3511  140.1667  170.8160 F       1  UNL1       -0.1659
     18 F         141.2873  142.9962  169.8213 F       1  UNL1       -0.1659
     19 C         139.3168  137.6037  163.4467 C.3     1  UNL1        0.0182
     20 C         138.4433  138.7989  163.6889 C.3     1  UNL1        0.0135
     21 C         138.6083  139.6069  164.9418 C.3     1  UNL1        0.0652
     22 S         138.3560  141.0854  164.9193 S.3     1  UNL1       -0.0757
     23 C         139.2251  143.0712  161.6997 C.ar    1  UNL1        0.2029
     24 N         137.7419  142.9068  161.5473 N.ar    1  UNL1       -0.1250
     25 N         137.2358  142.1429  162.7348 N.ar    1  UNL1       -0.1220
     26 C         138.4062  141.8352  163.6212 C.ar    1  UNL1        0.1933
     27 N         139.6356  142.4089  162.9814 N.ar    1  UNL1       -0.2860
     28 C         141.0306  142.3336  163.5275 C.3     1  UNL1        0.1341
     29 C         139.8939  146.2653  161.6780 C.3     1  UNL1        0.0556
     30 C         140.4449  145.2426  160.7290 C.ar    1  UNL1        0.1001
     31 N         141.4001  145.5086  159.6034 N.ar    1  UNL1       -0.2085
     32 C         141.6830  144.2048  158.9177 C.ar    1  UNL1        0.2849
     33 O         140.9026  143.1332  159.6195 O.2     1  UNL1       -0.4283
     34 C         140.1375  143.7745  160.7390 C.ar    1  UNL1        0.1964
@<TRIPOS>BOND
     1    29    30    1
     2    30    31   ar
     3    31    32   ar
     4    32    33   ar
     5    33    34   ar
     6    34    23    1
     7    23    24   ar
     8    24    25   ar
     9    25    26   ar
    10    26    22    1
    11    22    21    1
    12    21    20    1
    13    20    19    1
    14    19     1    1
    15     1     2    1
    16     2     3    1
    17     3     4    1
    18     5     4    1
    19     5     6    1
    20     6     7    1
    21     7     9    1
    22     9    10   ar
    23    10    11   ar
    24    11    12   ar
    25    12    15    1
    26    15    16    1
    27    15    17    1
    28    15    18    1
    29    12    13   ar
    30    13    14   ar
    31     5     8    1
    32    26    27   ar
    33    27    28    1
    34    34    30   ar
    35    27    23   ar
    36     8     2    1
    37     7     5    1
    38    14     9   ar
@<TRIPOS>MOLECULE
*****
 34 38 0 0 0
SMALL
GASTEIGER

@<TRIPOS>ATOM
      1 C         143.7021  144.5521  163.1226 C.3     1  UNL1        0.0721
      2 N         144.1081  143.1264  163.3516 N.3     1  UNL1       -0.2727
      3 C         145.2079  142.3974  162.6382 C.3     1  UNL1        0.0721
      4 C         145.2650  140.9998  163.1799 C.3     1  UNL1        0.0190
      5 C         144.2005  140.8651  164.2281 C.3     1  UNL1        0.0201
      6 C         144.4930  139.4331  164.5654 C.3     1  UNL1        0.0061
      7 C         143.3931  140.1621  165.2788 C.3     1  UNL1        0.0237
      8 C         143.4854  142.1794  164.3342 C.3     1  UNL1        0.0724
      9 C         142.2920  140.1771  166.2973 C.ar    1  UNL1       -0.0225
     10 C         142.6144  140.0120  167.7529 C.ar    1  UNL1       -0.0043
     11 C         141.5133  140.0270  168.7714 C.ar    1  UNL1        0.0035
     12 C         140.0898  140.2072  168.3342 C.ar    1  UNL1        0.0714
     13 C         139.7674  140.3723  166.8786 C.ar    1  UNL1        0.0035
     14 C         140.8685  140.3572  165.8601 C.ar    1  UNL1       -0.0043
     15 C         138.9887  140.2222  169.3527 C.3     1  UNL1        0.4186
     16 F         137.8874  140.2372  170.3711 F       1  UNL1       -0.1659
     17 F         139.8216  141.0987  170.2403 F       1  UNL1       -0.1659
     18 F         138.1557  139.3457  168.4650 F       1  UNL1       -0.1659
     19 C         142.6679  145.1882  164.0034 C.3     1  UNL1        0.0182
     20 C         141.2101  144.9580  163.7355 C.3     1  UNL1        0.0135
     21 C         140.5623  145.5746  162.5313 C.3     1  UNL1        0.0652
     22 S         140.1623  144.7124  161.3709 S.3     1  UNL1       -0.0757
     23 C         140.9340  140.9149  161.5919 C.ar    1  UNL1        0.2029
     24 N         141.9943  141.3708  160.6338 N.ar    1  UNL1       -0.1250
     25 N         141.8342  142.8488  160.4344 N.ar    1  UNL1       -0.1220
     26 C         140.6751  143.3065  161.2693 C.ar    1  UNL1        0.1933
     27 N         140.1187  142.1112  161.9847 N.ar    1  UNL1       -0.2860
     28 C         138.9519  142.1121  162.9273 C.3     1  UNL1        0.1341
     29 C         138.2714  139.0937  161.0990 C.3     1  UNL1        0.0556
     30 C         139.5018  138.6724  161.8463 C.ar    1  UNL1        0.1001
     31 N         139.7244  137.3399  162.4983 N.ar    1  UNL1       -0.2085
     32 C         141.0858  137.3536  163.1278 C.ar    1  UNL1        0.2849
     33 O         141.7046  138.6944  162.8649 O.2     1  UNL1       -0.4283
     34 C         140.7257  139.5095  162.0729 C.ar    1  UNL1        0.1964
@<TRIPOS>BOND
     1    29    30    1
     2    30    31   ar
     3    31    32   ar
     4    32    33   ar
     5    33    34   ar
     6    34    23    1
     7    23    24   ar
     8    24    25   ar
     9    25    26   ar
    10    26    22    1
    11    22    21    1
    12    21    20    1
    13    20    19    1
    14    19     1    1
    15     1     2    1
    16     2     3    1
    17     3     4    1
    18     5     4    1
    19     5     6    1
    20     6     7    1
    21     7     9    1
    22     9    10   ar
    23    10    11   ar
    24    11    12   ar
    25    12    15    1
    26    15    16    1
    27    15    17    1
    28    15    18    1
    29    12    13   ar
    30    13    14   ar
    31     5     8    1
    32    26    27   ar
    33    27    28    1
    34    34    30   ar
    35    27    23   ar
    36     8     2    1
    37     7     5    1
    38    14     9   ar
