@<TRIPOS>MOLECULE
*****
 22 23 0 0 0
SMALL
GASTEIGER

@<TRIPOS>ATOM
      1 C         142.4666  141.6407  169.3123 C.ar    1  UNL1        0.1414
      2 N         141.5093  141.5327  168.1626 N.ar    1  UNL1       -0.2288
      3 C         141.5573  140.1238  167.6501 C.ar    1  UNL1        0.0996
      4 C         142.5443  139.3609  168.4832 C.ar    1  UNL1        0.0927
      5 N         143.1062  140.2984  169.5105 N.ar    1  UNL1       -0.3378
      6 H         143.7771  140.0724  170.1946 H       1  UNL1        0.1672
      7 C         140.7586  139.5742  166.5055 C.ar    1  UNL1        0.0194
      8 C         139.2607  139.5488  166.5801 C.ar    1  UNL1        0.0047
      9 C         138.4620  138.9992  165.4356 C.ar    1  UNL1        0.0372
     10 C         139.1612  138.4750  164.2164 C.ar    1  UNL1        0.1468
     11 C         140.6591  138.5004  164.1418 C.ar    1  UNL1        0.0372
     12 C         141.4578  139.0500  165.2864 C.ar    1  UNL1        0.0047
     13 O         138.3625  137.9254  163.0719 O.3     1  UNL1       -0.4045
     14 C         138.3520  138.6400  161.7531 C.3     1  UNL1        0.5753
     15 F         138.3416  139.3546  160.4342 F       1  UNL1       -0.1328
     16 F         139.2806  137.6075  161.1862 F       1  UNL1       -0.1328
     17 F         137.4234  139.6726  162.3200 F       1  UNL1       -0.1328
     18 C         141.2698  143.1870  170.1348 C.3     1  UNL1        0.0371
     19 C         142.7368  142.8743  170.1218 C.3     1  UNL1        0.1381
     20 C         144.2037  142.5615  170.1088 C.3     1  UNL1        0.0371
     21 O         143.0070  144.1078  170.9313 O.3     1  UNL1       -0.3797
     22 H         142.1708  144.5644  171.1137 H       1  UNL1        0.2108
@<TRIPOS>BOND
     1    18    19    1
     2    19    20    1
     3    19    21    1
     4    19     1    1
     5     1     2   ar
     6     2     3   ar
     7     3     7    1
     8     7     8   ar
     9     8     9   ar
    10     9    10   ar
    11    10    13    1
    12    13    14    1
    13    14    15    1
    14    14    16    1
    15    14    17    1
    16    10    11   ar
    17    11    12   ar
    18     3     4   ar
    19     4     5   ar
    20     5     1   ar
    21    12     7   ar
    22    21    22    1
    23     5     6    1
@<TRIPOS>MOLECULE
*****
 22 23 0 0 0
SMALL
GASTEIGER

@<TRIPOS>ATOM
      1 C         142.4670  141.6151  169.3239 C.ar    1  UNL1        0.1414
      2 N         141.5046  141.5130  168.1780 N.ar    1  UNL1       -0.2288
      3 C         141.5574  140.1092  167.6519 C.ar    1  UNL1        0.0996
      4 C         142.5525  139.3437  168.4728 C.ar    1  UNL1        0.0927
      5 N         143.1147  140.2744  169.5061 N.ar    1  UNL1       -0.3378
      6 H         143.7901  140.0455  170.1848 H       1  UNL1        0.1672
      7 C         140.7558  139.5663  166.5061 C.ar    1  UNL1        0.0194
      8 C         141.4508  138.9235  165.3426 C.ar    1  UNL1        0.0047
      9 C         140.6492  138.3806  164.1969 C.ar    1  UNL1        0.0372
     10 C         139.1527  138.4805  164.2147 C.ar    1  UNL1        0.1468
     11 C         138.4577  139.1233  165.3782 C.ar    1  UNL1        0.0372
     12 C         139.2593  139.6661  166.5239 C.ar    1  UNL1        0.0047
     13 O         138.3511  137.9375  163.0689 O.3     1  UNL1       -0.4045
     14 C         138.3577  138.6459  161.7468 C.3     1  UNL1        0.5753
     15 F         138.3643  139.3543  160.4245 F       1  UNL1       -0.1328
     16 F         137.4193  139.6793  162.2957 F       1  UNL1       -0.1328
     17 F         139.2961  137.6124  161.1978 F       1  UNL1       -0.1328
     18 C         141.2676  143.1539  170.1565 C.3     1  UNL1        0.0371
     19 C         142.7348  142.8423  170.1437 C.3     1  UNL1        0.1381
     20 C         144.2020  142.5307  170.1310 C.3     1  UNL1        0.0371
     21 O         143.0026  144.0696  170.9635 O.3     1  UNL1       -0.3797
     22 H         142.1658  144.5241  171.1481 H       1  UNL1        0.2108
@<TRIPOS>BOND
     1    18    19    1
     2    19    20    1
     3    19    21    1
     4    19     1    1
     5     1     2   ar
     6     2     3   ar
     7     3     7    1
     8     7     8   ar
     9     8     9   ar
    10     9    10   ar
    11    10    13    1
    12    13    14    1
    13    14    15    1
    14    14    16    1
    15    14    17    1
    16    10    11   ar
    17    11    12   ar
    18     3     4   ar
    19     4     5   ar
    20     5     1   ar
    21    12     7   ar
    22    21    22    1
    23     5     6    1
@<TRIPOS>MOLECULE
*****
 22 23 0 0 0
SMALL
GASTEIGER

@<TRIPOS>ATOM
      1 C         140.3981  144.7220  163.0082 C.ar    1  UNL1        0.1414
      2 N         140.9312  143.6134  163.8666 N.ar    1  UNL1       -0.2288
      3 C         140.0596  143.5089  165.0830 C.ar    1  UNL1        0.0996
      4 C         138.9879  144.5529  164.9764 C.ar    1  UNL1        0.0927
      5 N         139.1971  145.3027  163.6942 N.ar    1  UNL1       -0.3378
      6 H         138.6433  146.0455  163.3613 H       1  UNL1        0.1672
      7 C         140.2300  142.5318  166.2083 C.ar    1  UNL1        0.0194
      8 C         140.5028  143.0278  167.5974 C.ar    1  UNL1        0.0047
      9 C         140.6731  142.0508  168.7227 C.ar    1  UNL1        0.0372
     10 C         140.5706  140.5777  168.4589 C.ar    1  UNL1        0.1468
     11 C         140.2978  140.0817  167.0698 C.ar    1  UNL1        0.0372
     12 C         140.1275  141.0587  165.9446 C.ar    1  UNL1        0.0047
     13 O         140.7409  139.6006  169.5843 O.3     1  UNL1       -0.4045
     14 C         142.0394  139.5373  170.3325 C.3     1  UNL1        0.5753
     15 F         143.3380  139.4740  171.0807 F       1  UNL1       -0.1328
     16 F         142.6143  138.6597  169.2604 F       1  UNL1       -0.1328
     17 F         141.4645  140.4149  171.4045 F       1  UNL1       -0.1328
     18 C         139.8456  146.1572  161.5471 C.3     1  UNL1        0.0371
     19 C         140.9662  145.1712  161.6947 C.3     1  UNL1        0.1381
     20 C         142.0869  144.1851  161.8422 C.3     1  UNL1        0.0371
     21 O         141.5344  145.6203  160.3811 O.3     1  UNL1       -0.3797
     22 H         140.9736  146.3183  160.0080 H       1  UNL1        0.2108
@<TRIPOS>BOND
     1    18    19    1
     2    19    20    1
     3    19    21    1
     4    19     1    1
     5     1     2   ar
     6     2     3   ar
     7     3     7    1
     8     7     8   ar
     9     8     9   ar
    10     9    10   ar
    11    10    13    1
    12    13    14    1
    13    14    15    1
    14    14    16    1
    15    14    17    1
    16    10    11   ar
    17    11    12   ar
    18     3     4   ar
    19     4     5   ar
    20     5     1   ar
    21    12     7   ar
    22    21    22    1
    23     5     6    1
@<TRIPOS>MOLECULE
*****
 22 23 0 0 0
SMALL
GASTEIGER

@<TRIPOS>ATOM
      1 C         140.8090  140.7177  169.1674 C.ar    1  UNL1        0.1414
      2 N         140.7935  141.8656  168.2020 N.ar    1  UNL1       -0.2288
      3 C         139.9468  141.4726  167.0279 C.ar    1  UNL1        0.0996
      4 C         139.4390  140.0817  167.2675 C.ar    1  UNL1        0.0927
      5 N         139.9718  139.6151  168.5898 N.ar    1  UNL1       -0.3378
      6 H         139.8020  138.7390  169.0055 H       1  UNL1        0.1672
      7 C         139.6585  142.3215  165.8252 C.ar    1  UNL1        0.0194
      8 C         138.4994  141.9892  164.9331 C.ar    1  UNL1        0.0047
      9 C         138.2112  142.8381  163.7305 C.ar    1  UNL1        0.0372
     10 C         139.0820  144.0193  163.4201 C.ar    1  UNL1        0.1468
     11 C         140.2411  144.3516  164.3122 C.ar    1  UNL1        0.0372
     12 C         140.5293  143.5027  165.5148 C.ar    1  UNL1        0.0047
     13 O         138.7937  144.8682  162.2174 O.3     1  UNL1       -0.4045
     14 C         139.9140  145.3006  161.3186 C.3     1  UNL1        0.5753
     15 F         141.0344  145.7331  160.4198 F       1  UNL1       -0.1328
     16 F         140.1736  143.8692  160.9534 F       1  UNL1       -0.1328
     17 F         139.6545  146.7321  161.6839 F       1  UNL1       -0.1328
     18 C         140.7792  141.8932  170.9329 C.3     1  UNL1        0.0371
     19 C         141.5343  140.6790  170.4798 C.3     1  UNL1        0.1381
     20 C         142.2895  139.4647  170.0267 C.3     1  UNL1        0.0371
     21 O         142.2596  140.6403  171.7922 O.3     1  UNL1       -0.3797
     22 H         141.9556  141.3723  172.3513 H       1  UNL1        0.2108
@<TRIPOS>BOND
     1    18    19    1
     2    19    20    1
     3    19    21    1
     4    19     1    1
     5     1     2   ar
     6     2     3   ar
     7     3     7    1
     8     7     8   ar
     9     8     9   ar
    10     9    10   ar
    11    10    13    1
    12    13    14    1
    13    14    15    1
    14    14    16    1
    15    14    17    1
    16    10    11   ar
    17    11    12   ar
    18     3     4   ar
    19     4     5   ar
    20     5     1   ar
    21    12     7   ar
    22    21    22    1
    23     5     6    1
@<TRIPOS>MOLECULE
*****
 22 23 0 0 0
SMALL
GASTEIGER

@<TRIPOS>ATOM
      1 C         141.4446  144.7633  161.9550 C.ar    1  UNL1        0.1414
      2 N         140.8946  144.1569  163.2118 N.ar    1  UNL1       -0.2288
      3 C         142.0505  143.7990  164.0983 C.ar    1  UNL1        0.0996
      4 C         143.3150  144.1843  163.3893 C.ar    1  UNL1        0.0927
      5 N         142.9405  144.7802  162.0646 N.ar    1  UNL1       -0.3378
      6 H         143.5666  145.1224  161.3863 H       1  UNL1        0.1672
      7 C         141.9582  143.1669  165.4555 C.ar    1  UNL1        0.0194
      8 C         143.1947  142.6457  166.1258 C.ar    1  UNL1        0.0047
      9 C         143.1023  142.0136  167.4830 C.ar    1  UNL1        0.0372
     10 C         141.7734  141.9027  168.1697 C.ar    1  UNL1        0.1468
     11 C         140.5368  142.4238  167.4994 C.ar    1  UNL1        0.0372
     12 C         140.6292  143.0559  166.1423 C.ar    1  UNL1        0.0047
     13 O         141.6810  141.2705  169.5270 O.3     1  UNL1       -0.4045
     14 C         142.1228  139.8508  169.7247 C.3     1  UNL1        0.5753
     15 F         142.5645  138.4310  169.9224 F       1  UNL1       -0.1328
     16 F         140.8533  139.3672  169.0886 F       1  UNL1       -0.1328
     17 F         143.3922  140.3344  170.3608 F       1  UNL1       -0.1328
     18 C         141.4652  144.4280  159.8604 C.3     1  UNL1        0.0371
     19 C         140.6400  145.2647  160.7926 C.3     1  UNL1        0.1381
     20 C         139.8148  146.1015  161.7247 C.3     1  UNL1        0.0371
     21 O         139.8355  145.7662  159.6302 O.3     1  UNL1       -0.3797
     22 H         140.1652  145.3641  158.8113 H       1  UNL1        0.2108
@<TRIPOS>BOND
     1    18    19    1
     2    19    20    1
     3    19    21    1
     4    19     1    1
     5     1     2   ar
     6     2     3   ar
     7     3     7    1
     8     7     8   ar
     9     8     9   ar
    10     9    10   ar
    11    10    13    1
    12    13    14    1
    13    14    15    1
    14    14    16    1
    15    14    17    1
    16    10    11   ar
    17    11    12   ar
    18     3     4   ar
    19     4     5   ar
    20     5     1   ar
    21    12     7   ar
    22    21    22    1
    23     5     6    1
@<TRIPOS>MOLECULE
*****
 22 23 0 0 0
SMALL
GASTEIGER

@<TRIPOS>ATOM
      1 C         138.2785  139.3098  163.1288 C.ar    1  UNL1        0.1414
      2 N         138.4618  140.3604  164.1836 N.ar    1  UNL1       -0.2288
      3 C         139.1420  139.7234  165.3591 C.ar    1  UNL1        0.0996
      4 C         139.3791  138.2791  165.0307 C.ar    1  UNL1        0.0927
      5 N         138.8454  138.0235  163.6523 N.ar    1  UNL1       -0.3378
      6 H         138.8640  137.1626  163.1751 H       1  UNL1        0.1672
      7 C         139.5189  140.4101  166.6383 C.ar    1  UNL1        0.0194
      8 C         140.2492  141.7198  166.5995 C.ar    1  UNL1        0.0047
      9 C         140.6260  142.4065  167.8787 C.ar    1  UNL1        0.0372
     10 C         140.2727  141.7835  169.1967 C.ar    1  UNL1        0.1468
     11 C         139.5424  140.4739  169.2355 C.ar    1  UNL1        0.0372
     12 C         139.1656  139.7872  167.9563 C.ar    1  UNL1        0.0047
     13 O         140.6496  142.4703  170.4759 O.3     1  UNL1       -0.4045
     14 C         142.0230  143.0508  170.6390 C.3     1  UNL1        0.5753
     15 F         143.3965  143.6315  170.8021 F       1  UNL1       -0.1328
     16 F         141.4864  144.4126  170.3111 F       1  UNL1       -0.1328
     17 F         142.5597  141.6891  170.9669 F       1  UNL1       -0.1328
     18 C         137.6880  138.0310  161.5426 C.3     1  UNL1        0.0371
     19 C         137.6404  139.5103  161.7862 C.3     1  UNL1        0.1381
     20 C         137.5927  140.9896  162.0298 C.3     1  UNL1        0.0371
     21 O         137.0022  139.7108  160.4436 O.3     1  UNL1       -0.3797
     22 H         136.8937  138.8522  160.0057 H       1  UNL1        0.2108
@<TRIPOS>BOND
     1    18    19    1
     2    19    20    1
     3    19    21    1
     4    19     1    1
     5     1     2   ar
     6     2     3   ar
     7     3     7    1
     8     7     8   ar
     9     8     9   ar
    10     9    10   ar
    11    10    13    1
    12    13    14    1
    13    14    15    1
    14    14    16    1
    15    14    17    1
    16    10    11   ar
    17    11    12   ar
    18     3     4   ar
    19     4     5   ar
    20     5     1   ar
    21    12     7   ar
    22    21    22    1
    23     5     6    1
@<TRIPOS>MOLECULE
*****
 22 23 0 0 0
SMALL
GASTEIGER

@<TRIPOS>ATOM
      1 C         141.2688  140.3640  168.5859 C.ar    1  UNL1        0.1414
      2 N         140.7450  141.5605  167.8483 N.ar    1  UNL1       -0.2288
      3 C         141.5822  141.7496  166.6180 C.ar    1  UNL1        0.0996
      4 C         142.6234  140.6701  166.5954 C.ar    1  UNL1        0.0927
      5 N         142.4297  139.8138  167.8116 N.ar    1  UNL1       -0.3378
      6 H         142.9698  139.0284  168.0583 H       1  UNL1        0.1672
      7 C         141.4086  142.8289  165.5908 C.ar    1  UNL1        0.0194
      8 C         140.0598  143.4485  165.3745 C.ar    1  UNL1        0.0047
      9 C         139.8862  144.5277  164.3474 C.ar    1  UNL1        0.0372
     10 C         141.0615  144.9873  163.5364 C.ar    1  UNL1        0.1468
     11 C         142.4103  144.3677  163.7527 C.ar    1  UNL1        0.0372
     12 C         142.5838  143.2885  164.7799 C.ar    1  UNL1        0.0047
     13 O         140.8879  146.0665  162.5092 O.3     1  UNL1       -0.4045
     14 C         140.3160  145.7353  161.1626 C.3     1  UNL1        0.5753
     15 F         139.7441  145.4041  159.8160 F       1  UNL1       -0.1328
     16 F         139.1577  146.6502  161.4295 F       1  UNL1       -0.1328
     17 F         141.4743  144.8205  160.8958 F       1  UNL1       -0.1328
     18 C         142.0589  139.1908  170.1668 C.3     1  UNL1        0.0371
     19 C         140.7269  139.8144  169.8721 C.3     1  UNL1        0.1381
     20 C         139.3949  140.4380  169.5774 C.3     1  UNL1        0.0371
     21 O         140.1850  139.2647  171.1582 O.3     1  UNL1       -0.3797
     22 H         140.8803  138.7661  171.6151 H       1  UNL1        0.2108
@<TRIPOS>BOND
     1    18    19    1
     2    19    20    1
     3    19    21    1
     4    19     1    1
     5     1     2   ar
     6     2     3   ar
     7     3     7    1
     8     7     8   ar
     9     8     9   ar
    10     9    10   ar
    11    10    13    1
    12    13    14    1
    13    14    15    1
    14    14    16    1
    15    14    17    1
    16    10    11   ar
    17    11    12   ar
    18     3     4   ar
    19     4     5   ar
    20     5     1   ar
    21    12     7   ar
    22    21    22    1
    23     5     6    1
@<TRIPOS>MOLECULE
*****
 22 23 0 0 0
SMALL
GASTEIGER

@<TRIPOS>ATOM
      1 C         143.1155  143.6135  161.7516 C.ar    1  UNL1        0.1414
      2 N         142.5199  142.7685  162.8384 N.ar    1  UNL1       -0.2288
      3 C         142.7561  143.4625  164.1471 C.ar    1  UNL1        0.0996
      4 C         143.4978  144.7362  163.8691 C.ar    1  UNL1        0.0927
      5 N         143.7200  144.8296  162.3886 N.ar    1  UNL1       -0.3378
      6 H         144.1814  145.5607  161.9177 H       1  UNL1        0.1672
      7 C         142.3262  142.9691  165.4969 C.ar    1  UNL1        0.0194
      8 C         140.8689  142.9232  165.8495 C.ar    1  UNL1        0.0047
      9 C         140.4390  142.4299  167.1992 C.ar    1  UNL1        0.0372
     10 C         141.4664  141.9825  168.1964 C.ar    1  UNL1        0.1468
     11 C         142.9236  142.0284  167.8438 C.ar    1  UNL1        0.0372
     12 C         143.3535  142.5217  166.4941 C.ar    1  UNL1        0.0047
     13 O         141.0364  141.4891  169.5461 O.3     1  UNL1       -0.4045
     14 C         139.6389  140.9837  169.7497 C.3     1  UNL1        0.5753
     15 F         138.2413  140.4782  169.9533 F       1  UNL1       -0.1328
     16 F         140.0176  139.6799  169.1120 F       1  UNL1       -0.1328
     17 F         139.2602  142.2875  170.3874 F       1  UNL1       -0.1328
     18 C         144.3988  142.5493  160.4398 C.3     1  UNL1        0.0371
     19 C         143.1081  143.2977  160.2852 C.3     1  UNL1        0.1381
     20 C         141.8174  144.0462  160.1306 C.3     1  UNL1        0.0371
     21 O         143.1007  142.9820  158.8189 O.3     1  UNL1       -0.3797
     22 H         143.8860  142.4577  158.5970 H       1  UNL1        0.2108
@<TRIPOS>BOND
     1    18    19    1
     2    19    20    1
     3    19    21    1
     4    19     1    1
     5     1     2   ar
     6     2     3   ar
     7     3     7    1
     8     7     8   ar
     9     8     9   ar
    10     9    10   ar
    11    10    13    1
    12    13    14    1
    13    14    15    1
    14    14    16    1
    15    14    17    1
    16    10    11   ar
    17    11    12   ar
    18     3     4   ar
    19     4     5   ar
    20     5     1   ar
    21    12     7   ar
    22    21    22    1
    23     5     6    1
@<TRIPOS>MOLECULE
*****
 22 23 0 0 0
SMALL
GASTEIGER

@<TRIPOS>ATOM
      1 C         141.8018  142.1340  169.0803 C.ar    1  UNL1        0.1414
      2 N         140.9661  142.5270  167.8983 N.ar    1  UNL1       -0.2288
      3 C         140.5219  141.2722  167.2068 C.ar    1  UNL1        0.0996
      4 C         141.0830  140.1036  167.9615 C.ar    1  UNL1        0.0927
      5 N         141.8740  140.6362  169.1194 N.ar    1  UNL1       -0.3378
      6 H         142.3560  140.0973  169.7876 H       1  UNL1        0.1672
      7 C         139.6667  141.1989  165.9766 C.ar    1  UNL1        0.0194
      8 C         138.9915  139.9111  165.6083 C.ar    1  UNL1        0.0047
      9 C         138.1363  139.8378  164.3781 C.ar    1  UNL1        0.0372
     10 C         137.9564  141.0523  163.5163 C.ar    1  UNL1        0.1468
     11 C         138.6316  142.3401  163.8847 C.ar    1  UNL1        0.0372
     12 C         139.4867  142.4133  165.1149 C.ar    1  UNL1        0.0047
     13 O         137.1012  140.9790  162.2861 O.3     1  UNL1       -0.4045
     14 C         137.6674  140.4288  161.0108 C.3     1  UNL1        0.5753
     15 F         138.2337  139.8785  159.7354 F       1  UNL1       -0.1328
     16 F         138.1040  141.8067  160.6101 F       1  UNL1       -0.1328
     17 F         137.2308  139.0508  161.4115 F       1  UNL1       -0.1328
     18 C         143.7469  142.3330  169.9029 C.3     1  UNL1        0.0371
     19 C         142.4512  143.0736  170.0525 C.3     1  UNL1        0.1381
     20 C         141.1554  143.8143  170.2022 C.3     1  UNL1        0.0371
     21 O         143.1006  144.0133  171.0248 O.3     1  UNL1       -0.3797
     22 H         144.0306  143.7643  171.1431 H       1  UNL1        0.2108
@<TRIPOS>BOND
     1    18    19    1
     2    19    20    1
     3    19    21    1
     4    19     1    1
     5     1     2   ar
     6     2     3   ar
     7     3     7    1
     8     7     8   ar
     9     8     9   ar
    10     9    10   ar
    11    10    13    1
    12    13    14    1
    13    14    15    1
    14    14    16    1
    15    14    17    1
    16    10    11   ar
    17    11    12   ar
    18     3     4   ar
    19     4     5   ar
    20     5     1   ar
    21    12     7   ar
    22    21    22    1
    23     5     6    1
