@<TRIPOS>MOLECULE
*****
 39 42 0 0 0
SMALL
GASTEIGER

@<TRIPOS>ATOM
      1 C         141.7725  141.8564  165.5029 C.ar    1  UNL1        0.2144
      2 C         140.8412  143.0025  165.7661 C.ar    1  UNL1        0.1822
      3 O         140.3737  143.2833  167.1634 O.2     1  UNL1       -0.4500
      4 C         140.8375  142.4180  168.2976 C.ar    1  UNL1        0.1545
      5 C         140.3700  142.6989  169.6949 C.ar    1  UNL1        0.0744
      6 C         140.8338  141.8336  170.8290 C.ar    1  UNL1        0.1397
      7 O         140.3663  142.1144  172.2264 O.3     1  UNL1       -0.5053
      8 C         141.7650  140.6875  170.5658 C.ar    1  UNL1        0.0735
      9 C         142.2325  140.4067  169.1685 C.ar    1  UNL1        0.1428
     10 O         143.1637  139.2606  168.9052 O.3     1  UNL1       -0.5052
     11 C         141.7687  141.2720  168.0344 C.ar    1  UNL1        0.1104
     12 C         142.2362  140.9912  166.6370 C.ar    1  UNL1        0.2382
     13 O         143.1675  139.8451  166.3737 O.2     1  UNL1       -0.2830
     14 H         139.7846  142.8303  172.3909 H       1  UNL1        0.2922
     15 H         143.4534  138.7201  169.6137 H       1  UNL1        0.2922
     16 C         140.3775  143.8678  164.6319 C.ar    1  UNL1        0.0379
     17 C         141.3424  144.7924  163.9509 C.ar    1  UNL1        0.0062
     18 C         140.8786  145.6577  162.8168 C.ar    1  UNL1        0.0367
     19 C         139.4499  145.5982  162.3637 C.ar    1  UNL1        0.1337
     20 O         138.9861  146.4635  161.2295 O.3     1  UNL1       -0.5055
     21 C         138.4850  144.6736  163.0448 C.ar    1  UNL1        0.0367
     22 C         138.9487  143.8084  164.1789 C.ar    1  UNL1        0.0062
     23 H         139.5889  147.0411  160.8041 H       1  UNL1        0.2922
     24 O         142.2399  141.5756  164.1055 O.3     1  UNL1       -0.4441
     25 C         141.5390  138.6153  161.5570 C.3     1  UNL1        0.2306
     26 C         140.0391  138.5936  161.5533 C.3     1  UNL1        0.1804
     27 O         139.3056  137.5995  160.7025 O.3     1  UNL1       -0.3785
     28 C         139.2729  139.5659  162.4003 C.3     1  UNL1        0.1494
     29 C         137.7730  139.5442  162.3967 C.3     1  UNL1        0.0349
     30 O         140.0064  140.5599  163.2511 O.3     1  UNL1       -0.3186
     31 C         141.5063  140.5816  163.2547 C.3     1  UNL1        0.3194
     32 C         142.2725  139.6093  162.4077 C.3     1  UNL1        0.2240
     33 O         143.7724  139.6311  162.4114 O.3     1  UNL1       -0.3758
     34 H         138.3498  137.7199  160.8160 H       1  UNL1        0.2106
     35 H         144.0841  140.3279  163.0098 H       1  UNL1        0.2107
     36 O         142.3052  137.6430  160.7099 O.3     1  UNL1       -0.4468
     37 C         142.4395  137.5368  158.1175 C.3     1  UNL1        0.1212
     38 C         142.9251  138.0968  159.4216 C.2     1  UNL1        0.3176
     39 O         144.0305  139.1106  159.4374 O.2     1  UNL1       -0.2501
@<TRIPOS>BOND
     1    37    38    1
     2    38    39    2
     3    38    36    1
     4    25    36    1
     5    25    26    1
     6    26    27    1
     7    26    28    1
     8    28    29    1
     9    28    30    1
    10    30    31    1
    11    31    24    1
    12    24     1    1
    13     1     2   ar
    14     2    16    1
    15    16    17   ar
    16    17    18   ar
    17    18    19   ar
    18    19    20    1
    19    19    21   ar
    20    21    22   ar
    21     2     3   ar
    22     3     4   ar
    23     4     5   ar
    24     5     6   ar
    25     6     7    1
    26     6     8   ar
    27     8     9   ar
    28     9    10    1
    29     9    11   ar
    30    11    12   ar
    31    12    13    2
    32    31    32    1
    33    32    33    1
    34    32    25    1
    35    12     1   ar
    36    22    16   ar
    37    11     4   ar
    38    27    34    1
    39    20    23    1
    40     7    14    1
    41    10    15    1
    42    33    35    1
@<TRIPOS>MOLECULE
*****
 39 42 0 0 0
SMALL
GASTEIGER

@<TRIPOS>ATOM
      1 C         141.6790  141.7880  165.5599 C.ar    1  UNL1        0.2144
      2 C         140.7861  142.9639  165.8245 C.ar    1  UNL1        0.1822
      3 O         140.3493  143.2737  167.2257 O.2     1  UNL1       -0.4500
      4 C         140.8055  142.4076  168.3623 C.ar    1  UNL1        0.1545
      5 C         140.3687  142.7174  169.7634 C.ar    1  UNL1        0.0744
      6 C         140.8249  141.8513  170.9000 C.ar    1  UNL1        0.1397
      7 O         140.3881  142.1611  172.3012 O.3     1  UNL1       -0.5053
      8 C         141.7178  140.6755  170.6354 C.ar    1  UNL1        0.0735
      9 C         142.1546  140.3657  169.2343 C.ar    1  UNL1        0.1428
     10 O         143.0475  139.1898  168.9697 O.3     1  UNL1       -0.5052
     11 C         141.6984  141.2317  168.0977 C.ar    1  UNL1        0.1104
     12 C         142.1352  140.9220  166.6965 C.ar    1  UNL1        0.2382
     13 O         143.0281  139.7461  166.4319 O.2     1  UNL1       -0.2830
     14 H         139.8304  142.8956  172.4665 H       1  UNL1        0.2922
     15 H         143.3325  138.6488  169.6797 H       1  UNL1        0.2922
     16 C         140.3299  143.8300  164.6879 C.ar    1  UNL1        0.0379
     17 C         141.3068  144.7312  163.9927 C.ar    1  UNL1        0.0062
     18 C         140.8506  145.5972  162.8561 C.ar    1  UNL1        0.0367
     19 C         139.4175  145.5620  162.4147 C.ar    1  UNL1        0.1337
     20 O         138.9613  146.4281  161.2781 O.3     1  UNL1       -0.5055
     21 C         138.4405  144.6608  163.1099 C.ar    1  UNL1        0.0367
     22 C         138.8967  143.7948  164.2465 C.ar    1  UNL1        0.0062
     23 H         139.5716  146.9911  160.8438 H       1  UNL1        0.2922
     24 O         142.1158  141.4782  164.1587 O.3     1  UNL1       -0.4441
     25 C         140.4975  139.7543  160.9713 C.3     1  UNL1        0.2306
     26 C         139.6915  138.6661  161.6162 C.3     1  UNL1        0.1804
     27 O         138.8834  137.7287  160.7687 O.3     1  UNL1       -0.3785
     28 C         139.6935  138.5151  163.1086 C.3     1  UNL1        0.1494
     29 C         138.8875  137.4268  163.7535 C.3     1  UNL1        0.0349
     30 O         140.5016  139.4525  163.9561 O.3     1  UNL1       -0.3186
     31 C         141.3077  140.5408  163.3112 C.3     1  UNL1        0.3194
     32 C         141.3056  140.6917  161.8188 C.3     1  UNL1        0.2240
     33 O         142.1116  141.7800  161.1740 O.3     1  UNL1       -0.3758
     34 H         138.4262  137.0904  161.3383 H       1  UNL1        0.2106
     35 H         142.5706  142.2915  161.8587 H       1  UNL1        0.2107
     36 O         140.4955  139.9052  159.4790 O.3     1  UNL1       -0.4468
     37 C         139.5131  141.9415  158.1988 C.3     1  UNL1        0.1212
     38 C         139.3413  140.5755  158.7945 C.2     1  UNL1        0.3176
     39 O         138.0153  139.8800  158.7057 O.2     1  UNL1       -0.2501
@<TRIPOS>BOND
     1    37    38    1
     2    38    39    2
     3    38    36    1
     4    25    36    1
     5    25    26    1
     6    26    27    1
     7    26    28    1
     8    28    29    1
     9    28    30    1
    10    30    31    1
    11    31    24    1
    12    24     1    1
    13     1     2   ar
    14     2    16    1
    15    16    17   ar
    16    17    18   ar
    17    18    19   ar
    18    19    20    1
    19    19    21   ar
    20    21    22   ar
    21     2     3   ar
    22     3     4   ar
    23     4     5   ar
    24     5     6   ar
    25     6     7    1
    26     6     8   ar
    27     8     9   ar
    28     9    10    1
    29     9    11   ar
    30    11    12   ar
    31    12    13    2
    32    31    32    1
    33    32    33    1
    34    32    25    1
    35    12     1   ar
    36    22    16   ar
    37    11     4   ar
    38    27    34    1
    39    20    23    1
    40     7    14    1
    41    10    15    1
    42    33    35    1
@<TRIPOS>MOLECULE
*****
 39 42 0 0 0
SMALL
GASTEIGER

@<TRIPOS>ATOM
      1 C         139.9081  139.2813  166.2030 C.ar    1  UNL1        0.2144
      2 C         141.2648  139.8438  165.8983 C.ar    1  UNL1        0.1822
      3 O         142.0251  140.5841  166.9585 O.2     1  UNL1       -0.4500
      4 C         141.4286  140.7618  168.3233 C.ar    1  UNL1        0.1545
      5 C         142.1889  141.5021  169.3835 C.ar    1  UNL1        0.0744
      6 C         141.5924  141.6798  170.7482 C.ar    1  UNL1        0.1397
      7 O         142.3527  142.4201  171.8085 O.3     1  UNL1       -0.5053
      8 C         140.2357  141.1172  171.0528 C.ar    1  UNL1        0.0735
      9 C         139.4754  140.3770  169.9927 C.ar    1  UNL1        0.1428
     10 O         138.1187  139.8144  170.2973 O.3     1  UNL1       -0.5052
     11 C         140.0719  140.1993  168.6279 C.ar    1  UNL1        0.1104
     12 C         139.3116  139.4590  167.5677 C.ar    1  UNL1        0.2382
     13 O         137.9549  138.8964  167.8723 O.2     1  UNL1       -0.2830
     14 H         143.2002  142.7715  171.6182 H       1  UNL1        0.2922
     15 H         137.7461  139.9254  171.1498 H       1  UNL1        0.2922
     16 C         141.8613  139.6661  164.5335 C.ar    1  UNL1        0.0379
     17 C         141.8952  140.8185  163.5740 C.ar    1  UNL1        0.0062
     18 C         142.4916  140.6408  162.2092 C.ar    1  UNL1        0.0367
     19 C         143.0541  139.3106  161.8040 C.ar    1  UNL1        0.1337
     20 O         143.6506  139.1329  160.4391 O.3     1  UNL1       -0.5055
     21 C         143.0202  138.1582  162.7635 C.ar    1  UNL1        0.0367
     22 C         142.4238  138.3359  164.1283 C.ar    1  UNL1        0.0062
     23 H         143.6718  139.8527  159.8397 H       1  UNL1        0.2922
     24 O         139.1478  138.5410  165.1427 O.3     1  UNL1       -0.4441
     25 C         137.9346  141.1388  162.3987 C.3     1  UNL1        0.2306
     26 C         138.4090  140.4679  161.1438 C.3     1  UNL1        0.1804
     27 O         138.1627  141.1102  159.8108 O.3     1  UNL1       -0.3785
     28 C         139.1297  139.1546  161.2218 C.3     1  UNL1        0.1494
     29 C         139.6041  138.4837  159.9669 C.3     1  UNL1        0.0349
     30 O         139.3760  138.5123  162.5548 O.3     1  UNL1       -0.3186
     31 C         138.9015  139.1833  163.8097 C.3     1  UNL1        0.3194
     32 C         138.1809  140.4965  163.7317 C.3     1  UNL1        0.2240
     33 O         137.7065  141.1674  164.9866 O.3     1  UNL1       -0.3758
     34 H         138.5303  140.5502  159.1093 H       1  UNL1        0.2106
     35 H         137.9446  140.6236  165.7537 H       1  UNL1        0.2107
     36 O         137.2140  142.4520  162.3206 O.3     1  UNL1       -0.4468
     37 C         137.9005  144.3672  163.9364 C.3     1  UNL1        0.1212
     38 C         137.9546  143.7305  162.5793 C.2     1  UNL1        0.3176
     39 O         138.7492  144.3723  161.4809 O.2     1  UNL1       -0.2501
@<TRIPOS>BOND
     1    37    38    1
     2    38    39    2
     3    38    36    1
     4    25    36    1
     5    25    26    1
     6    26    27    1
     7    26    28    1
     8    28    29    1
     9    28    30    1
    10    30    31    1
    11    31    24    1
    12    24     1    1
    13     1     2   ar
    14     2    16    1
    15    16    17   ar
    16    17    18   ar
    17    18    19   ar
    18    19    20    1
    19    19    21   ar
    20    21    22   ar
    21     2     3   ar
    22     3     4   ar
    23     4     5   ar
    24     5     6   ar
    25     6     7    1
    26     6     8   ar
    27     8     9   ar
    28     9    10    1
    29     9    11   ar
    30    11    12   ar
    31    12    13    2
    32    31    32    1
    33    32    33    1
    34    32    25    1
    35    12     1   ar
    36    22    16   ar
    37    11     4   ar
    38    27    34    1
    39    20    23    1
    40     7    14    1
    41    10    15    1
    42    33    35    1
@<TRIPOS>MOLECULE
*****
 39 42 0 0 0
SMALL
GASTEIGER

@<TRIPOS>ATOM
      1 C         142.9413  140.4752  166.2915 C.ar    1  UNL1        0.2144
      2 C         142.3590  141.7847  165.8485 C.ar    1  UNL1        0.1822
      3 O         141.5140  142.5874  166.7927 O.2     1  UNL1       -0.4500
      4 C         141.2512  142.0807  168.1799 C.ar    1  UNL1        0.1545
      5 C         140.4062  142.8835  169.1240 C.ar    1  UNL1        0.0744
      6 C         140.1435  142.3767  170.5111 C.ar    1  UNL1        0.1397
      7 O         139.2984  143.1795  171.4554 O.3     1  UNL1       -0.5053
      8 C         140.7257  141.0672  170.9541 C.ar    1  UNL1        0.0735
      9 C         141.5707  140.2645  170.0099 C.ar    1  UNL1        0.1428
     10 O         142.1530  138.9550  170.4529 O.3     1  UNL1       -0.5052
     11 C         141.8335  140.7712  168.6228 C.ar    1  UNL1        0.1104
     12 C         142.6785  139.9684  167.6786 C.ar    1  UNL1        0.2382
     13 O         143.2608  138.6589  168.1215 O.2     1  UNL1       -0.2830
     14 H         138.9347  143.9975  171.1787 H       1  UNL1        0.2922
     15 H         141.9888  138.6384  171.3194 H       1  UNL1        0.2922
     16 C         142.6218  142.2914  164.4613 C.ar    1  UNL1        0.0379
     17 C         143.9510  142.8993  164.1242 C.ar    1  UNL1        0.0062
     18 C         144.2137  143.4060  162.7370 C.ar    1  UNL1        0.0367
     19 C         143.1473  143.3047  161.6870 C.ar    1  UNL1        0.1337
     20 O         143.4101  143.8115  160.2998 O.3     1  UNL1       -0.5055
     21 C         141.8181  142.6968  162.0242 C.ar    1  UNL1        0.0367
     22 C         141.5554  142.1902  163.4113 C.ar    1  UNL1        0.0062
     23 H         144.2404  144.1912  160.0892 H       1  UNL1        0.2922
     24 O         143.7863  139.6724  165.3472 O.3     1  UNL1       -0.4441
     25 C         141.4663  138.0167  162.5857 C.3     1  UNL1        0.2306
     26 C         142.1509  138.4710  161.3307 C.3     1  UNL1        0.1804
     27 O         141.6057  138.0705  159.9919 O.3     1  UNL1       -0.3785
     28 C         143.3807  139.3258  161.4146 C.3     1  UNL1        0.1494
     29 C         144.0653  139.7800  160.1597 C.3     1  UNL1        0.0349
     30 O         143.9259  139.7262  162.7534 O.3     1  UNL1       -0.3186
     31 C         143.2412  139.2719  164.0084 C.3     1  UNL1        0.3194
     32 C         142.0114  138.4172  163.9245 C.3     1  UNL1        0.2240
     33 O         141.3268  137.9629  165.1794 O.3     1  UNL1       -0.3758
     34 H         142.1621  138.4450  159.2911 H       1  UNL1        0.2106
     35 H         141.8040  138.3068  165.9507 H       1  UNL1        0.2107
     36 O         140.2365  137.1620  162.5018 O.3     1  UNL1       -0.4468
     37 C         137.9350  138.1468  161.8067 C.3     1  UNL1        0.1212
     38 C         138.9004  137.7313  162.8769 C.2     1  UNL1        0.3176
     39 O         138.5298  137.8851  164.3222 O.2     1  UNL1       -0.2501
@<TRIPOS>BOND
     1    37    38    1
     2    38    39    2
     3    38    36    1
     4    25    36    1
     5    25    26    1
     6    26    27    1
     7    26    28    1
     8    28    29    1
     9    28    30    1
    10    30    31    1
    11    31    24    1
    12    24     1    1
    13     1     2   ar
    14     2    16    1
    15    16    17   ar
    16    17    18   ar
    17    18    19   ar
    18    19    20    1
    19    19    21   ar
    20    21    22   ar
    21     2     3   ar
    22     3     4   ar
    23     4     5   ar
    24     5     6   ar
    25     6     7    1
    26     6     8   ar
    27     8     9   ar
    28     9    10    1
    29     9    11   ar
    30    11    12   ar
    31    12    13    2
    32    31    32    1
    33    32    33    1
    34    32    25    1
    35    12     1   ar
    36    22    16   ar
    37    11     4   ar
    38    27    34    1
    39    20    23    1
    40     7    14    1
    41    10    15    1
    42    33    35    1
@<TRIPOS>MOLECULE
*****
 39 42 0 0 0
SMALL
GASTEIGER

@<TRIPOS>ATOM
      1 C         139.7336  141.3209  166.2026 C.ar    1  UNL1        0.2144
      2 C         140.6266  142.4021  165.6701 C.ar    1  UNL1        0.1822
      3 O         141.8284  142.8368  166.4554 O.2     1  UNL1       -0.4500
      4 C         142.1373  142.1902  167.7732 C.ar    1  UNL1        0.1545
      5 C         143.3391  142.6248  168.5585 C.ar    1  UNL1        0.0744
      6 C         143.6479  141.9783  169.8762 C.ar    1  UNL1        0.1397
      7 O         144.8498  142.4129  170.6616 O.3     1  UNL1       -0.5053
      8 C         142.7550  140.8970  170.4087 C.ar    1  UNL1        0.0735
      9 C         141.5532  140.4623  169.6234 C.ar    1  UNL1        0.1428
     10 O         140.6602  139.3811  170.1559 O.3     1  UNL1       -0.5052
     11 C         141.2443  141.1089  168.3057 C.ar    1  UNL1        0.1104
     12 C         140.0425  140.6743  167.5203 C.ar    1  UNL1        0.2382
     13 O         139.1495  139.5930  168.0528 O.2     1  UNL1       -0.2830
     14 H         145.4076  143.0883  170.3290 H       1  UNL1        0.2922
     15 H         140.8531  138.9772  170.9790 H       1  UNL1        0.2922
     16 C         140.3177  143.0487  164.3523 C.ar    1  UNL1        0.0379
     17 C         139.2597  144.1086  164.2666 C.ar    1  UNL1        0.0062
     18 C         138.9509  144.7551  162.9488 C.ar    1  UNL1        0.0367
     19 C         139.7000  144.3418  161.7167 C.ar    1  UNL1        0.1337
     20 O         139.3911  144.9884  160.3989 O.3     1  UNL1       -0.5055
     21 C         140.7579  143.2819  161.8024 C.ar    1  UNL1        0.0367
     22 C         141.0668  142.6354  163.1202 C.ar    1  UNL1        0.0062
     23 H         138.7302  145.6504  160.3454 H       1  UNL1        0.2922
     24 O         138.5318  140.8862  165.4172 O.3     1  UNL1       -0.4441
     25 C         138.0530  139.5179  161.7229 C.3     1  UNL1        0.2306
     26 C         139.0500  138.3974  161.7041 C.3     1  UNL1        0.1804
     27 O         139.2228  137.5678  160.4664 O.3     1  UNL1       -0.3785
     28 C         139.8744  138.1064  162.9231 C.3     1  UNL1        0.1494
     29 C         140.8714  136.9860  162.9044 C.3     1  UNL1        0.0349
     30 O         139.7016  138.9361  164.1608 O.3     1  UNL1       -0.3186
     31 C         138.7045  140.0566  164.1795 C.3     1  UNL1        0.3194
     32 C         137.8802  140.3475  162.9606 C.3     1  UNL1        0.2240
     33 O         136.8832  141.4680  162.9793 O.3     1  UNL1       -0.3758
     34 H         139.9011  136.8921  160.6221 H       1  UNL1        0.2106
     35 H         136.8977  141.8991  163.8481 H       1  UNL1        0.2107
     36 O         137.2287  139.8087  160.5039 O.3     1  UNL1       -0.4468
     37 C         138.0934  141.8869  159.2063 C.3     1  UNL1        0.1212
     38 C         137.8729  140.4054  159.2877 C.2     1  UNL1        0.3176
     39 O         138.2966  139.5206  158.1530 O.2     1  UNL1       -0.2501
@<TRIPOS>BOND
     1    37    38    1
     2    38    39    2
     3    38    36    1
     4    25    36    1
     5    25    26    1
     6    26    27    1
     7    26    28    1
     8    28    29    1
     9    28    30    1
    10    30    31    1
    11    31    24    1
    12    24     1    1
    13     1     2   ar
    14     2    16    1
    15    16    17   ar
    16    17    18   ar
    17    18    19   ar
    18    19    20    1
    19    19    21   ar
    20    21    22   ar
    21     2     3   ar
    22     3     4   ar
    23     4     5   ar
    24     5     6   ar
    25     6     7    1
    26     6     8   ar
    27     8     9   ar
    28     9    10    1
    29     9    11   ar
    30    11    12   ar
    31    12    13    2
    32    31    32    1
    33    32    33    1
    34    32    25    1
    35    12     1   ar
    36    22    16   ar
    37    11     4   ar
    38    27    34    1
    39    20    23    1
    40     7    14    1
    41    10    15    1
    42    33    35    1
@<TRIPOS>MOLECULE
*****
 39 42 0 0 0
SMALL
GASTEIGER

@<TRIPOS>ATOM
      1 C         141.3572  140.4745  165.8205 C.ar    1  UNL1        0.2144
      2 C         142.5887  141.3257  165.9147 C.ar    1  UNL1        0.1822
      3 O         143.0159  141.8826  167.2403 O.2     1  UNL1       -0.4500
      4 C         142.2116  141.5882  168.4719 C.ar    1  UNL1        0.1545
      5 C         142.6389  142.1451  169.7975 C.ar    1  UNL1        0.0744
      6 C         141.8346  141.8507  171.0289 C.ar    1  UNL1        0.1397
      7 O         142.2618  142.4076  172.3547 O.3     1  UNL1       -0.5053
      8 C         140.6031  140.9995  170.9347 C.ar    1  UNL1        0.0735
      9 C         140.1759  140.4427  169.6091 C.ar    1  UNL1        0.1428
     10 O         138.9444  139.5915  169.5149 O.3     1  UNL1       -0.5052
     11 C         140.9802  140.7370  168.3776 C.ar    1  UNL1        0.1104
     12 C         140.5530  140.1802  167.0519 C.ar    1  UNL1        0.2382
     13 O         139.3215  139.3290  166.9577 O.2     1  UNL1       -0.2830
     14 H         143.0311  142.9393  172.4135 H       1  UNL1        0.2922
     15 H         138.4420  139.4076  170.2841 H       1  UNL1        0.2922
     16 C         143.3930  141.6201  164.6832 C.ar    1  UNL1        0.0379
     17 C         143.4056  143.0058  164.1091 C.ar    1  UNL1        0.0062
     18 C         144.2098  143.3001  162.8776 C.ar    1  UNL1        0.0367
     19 C         145.0015  142.2087  162.2203 C.ar    1  UNL1        0.1337
     20 O         145.8058  142.5030  160.9888 O.3     1  UNL1       -0.5055
     21 C         144.9890  140.8230  162.7944 C.ar    1  UNL1        0.0367
     22 C         144.1847  140.5287  164.0259 C.ar    1  UNL1        0.0062
     23 H         145.8137  143.3686  160.6301 H       1  UNL1        0.2922
     24 O         140.9300  139.9177  164.4948 O.3     1  UNL1       -0.4441
     25 C         138.4470  140.8851  161.5539 C.3     1  UNL1        0.2306
     26 C         138.3281  142.3662  161.7590 C.3     1  UNL1        0.1804
     27 O         137.4608  143.1824  160.8470 O.3     1  UNL1       -0.3785
     28 C         139.0766  143.0312  162.8760 C.3     1  UNL1        0.1494
     29 C         138.9577  144.5124  163.0810 C.3     1  UNL1        0.0349
     30 O         139.9439  142.2151  163.7879 O.3     1  UNL1       -0.3186
     31 C         140.0627  140.7338  163.5828 C.3     1  UNL1        0.3194
     32 C         139.3143  140.0689  162.4659 C.3     1  UNL1        0.2240
     33 O         139.4331  138.5878  162.2609 O.3     1  UNL1       -0.3758
     34 H         137.4954  144.1138  161.1158 H       1  UNL1        0.2106
     35 H         140.0275  138.2153  162.9308 H       1  UNL1        0.2107
     36 O         137.6985  140.2201  160.4370 O.3     1  UNL1       -0.4468
     37 C         139.6966  140.4103  158.7872 C.3     1  UNL1        0.1212
     38 C         138.2210  140.2983  159.0331 C.2     1  UNL1        0.3176
     39 O         137.2682  140.2645  157.8752 O.2     1  UNL1       -0.2501
@<TRIPOS>BOND
     1    37    38    1
     2    38    39    2
     3    38    36    1
     4    25    36    1
     5    25    26    1
     6    26    27    1
     7    26    28    1
     8    28    29    1
     9    28    30    1
    10    30    31    1
    11    31    24    1
    12    24     1    1
    13     1     2   ar
    14     2    16    1
    15    16    17   ar
    16    17    18   ar
    17    18    19   ar
    18    19    20    1
    19    19    21   ar
    20    21    22   ar
    21     2     3   ar
    22     3     4   ar
    23     4     5   ar
    24     5     6   ar
    25     6     7    1
    26     6     8   ar
    27     8     9   ar
    28     9    10    1
    29     9    11   ar
    30    11    12   ar
    31    12    13    2
    32    31    32    1
    33    32    33    1
    34    32    25    1
    35    12     1   ar
    36    22    16   ar
    37    11     4   ar
    38    27    34    1
    39    20    23    1
    40     7    14    1
    41    10    15    1
    42    33    35    1
@<TRIPOS>MOLECULE
*****
 39 42 0 0 0
SMALL
GASTEIGER

@<TRIPOS>ATOM
      1 C         141.1560  140.1713  165.8544 C.ar    1  UNL1        0.2144
      2 C         140.1230  141.2574  165.9102 C.ar    1  UNL1        0.1822
      3 O         139.7656  141.8859  167.2244 O.2     1  UNL1       -0.4500
      4 C         140.4414  141.4282  168.4830 C.ar    1  UNL1        0.1545
      5 C         140.0841  142.0567  169.7973 C.ar    1  UNL1        0.0744
      6 C         140.7598  141.5990  171.0558 C.ar    1  UNL1        0.1397
      7 O         140.4025  142.2275  172.3701 O.3     1  UNL1       -0.5053
      8 C         141.7928  140.5129  171.0000 C.ar    1  UNL1        0.0735
      9 C         142.1501  139.8844  169.6858 C.ar    1  UNL1        0.1428
     10 O         143.1832  138.7982  169.6300 O.3     1  UNL1       -0.5052
     11 C         141.4744  140.3421  168.4273 C.ar    1  UNL1        0.1104
     12 C         141.8317  139.7136  167.1129 C.ar    1  UNL1        0.2382
     13 O         142.8648  138.6274  167.0572 O.2     1  UNL1       -0.2830
     14 H         139.7572  142.9060  172.4050 H       1  UNL1        0.2922
     15 H         143.6053  138.5123  170.4162 H       1  UNL1        0.2922
     16 C         139.4472  141.7151  164.6516 C.ar    1  UNL1        0.0379
     17 C         138.2785  140.9489  164.1066 C.ar    1  UNL1        0.0062
     18 C         137.6029  141.4066  162.8480 C.ar    1  UNL1        0.0367
     19 C         138.0959  142.6304  162.1345 C.ar    1  UNL1        0.1337
     20 O         137.4201  143.0881  160.8759 O.3     1  UNL1       -0.5055
     21 C         139.2646  143.3966  162.6795 C.ar    1  UNL1        0.0367
     22 C         139.9402  142.9389  163.9381 C.ar    1  UNL1        0.0062
     23 H         136.6901  142.6095  160.5355 H       1  UNL1        0.2922
     24 O         141.5133  139.5428  164.5401 O.3     1  UNL1       -0.4441
     25 C         142.9820  141.1964  161.2448 C.3     1  UNL1        0.2306
     26 C         144.3271  141.6490  161.7301 C.3     1  UNL1        0.1804
     27 O         145.2651  142.3511  160.7934 O.3     1  UNL1       -0.3785
     28 C         144.7345  141.3996  163.1521 C.3     1  UNL1        0.1494
     29 C         146.0797  141.8522  163.6373 C.3     1  UNL1        0.0349
     30 O         143.7965  140.6975  164.0887 O.3     1  UNL1       -0.3186
     31 C         142.4513  140.2449  163.6034 C.3     1  UNL1        0.3194
     32 C         142.0440  140.4943  162.1815 C.3     1  UNL1        0.2240
     33 O         140.6988  140.0416  161.6963 O.3     1  UNL1       -0.3758
     34 H         146.0841  142.5740  161.2629 H       1  UNL1        0.2106
     35 H         140.2221  139.6091  162.4219 H       1  UNL1        0.2107
     36 O         142.5747  141.4458  159.8229 O.3     1  UNL1       -0.4468
     37 C         140.6533  143.1001  159.2558 C.3     1  UNL1        0.1212
     38 C         142.1180  142.8112  159.4021 C.2     1  UNL1        0.3176
     39 O         143.1258  143.8876  159.1275 O.2     1  UNL1       -0.2501
@<TRIPOS>BOND
     1    37    38    1
     2    38    39    2
     3    38    36    1
     4    25    36    1
     5    25    26    1
     6    26    27    1
     7    26    28    1
     8    28    29    1
     9    28    30    1
    10    30    31    1
    11    31    24    1
    12    24     1    1
    13     1     2   ar
    14     2    16    1
    15    16    17   ar
    16    17    18   ar
    17    18    19   ar
    18    19    20    1
    19    19    21   ar
    20    21    22   ar
    21     2     3   ar
    22     3     4   ar
    23     4     5   ar
    24     5     6   ar
    25     6     7    1
    26     6     8   ar
    27     8     9   ar
    28     9    10    1
    29     9    11   ar
    30    11    12   ar
    31    12    13    2
    32    31    32    1
    33    32    33    1
    34    32    25    1
    35    12     1   ar
    36    22    16   ar
    37    11     4   ar
    38    27    34    1
    39    20    23    1
    40     7    14    1
    41    10    15    1
    42    33    35    1
@<TRIPOS>MOLECULE
*****
 39 42 0 0 0
SMALL
GASTEIGER

@<TRIPOS>ATOM
      1 C         141.8630  140.9730  165.5861 C.ar    1  UNL1        0.2144
      2 C         140.5146  140.3894  165.8878 C.ar    1  UNL1        0.1822
      3 O         139.9507  140.4814  167.2747 O.2     1  UNL1       -0.4500
      4 C         140.7353  141.1572  168.3600 C.ar    1  UNL1        0.1545
      5 C         140.1715  141.2493  169.7469 C.ar    1  UNL1        0.0744
      6 C         140.9561  141.9251  170.8321 C.ar    1  UNL1        0.1397
      7 O         140.3922  142.0172  172.2191 O.3     1  UNL1       -0.5053
      8 C         142.3045  142.5087  170.5304 C.ar    1  UNL1        0.0735
      9 C         142.8684  142.4166  169.1435 C.ar    1  UNL1        0.1428
     10 O         144.2168  143.0003  168.8418 O.3     1  UNL1       -0.5052
     11 C         142.0838  141.7409  168.0583 C.ar    1  UNL1        0.1104
     12 C         142.6476  141.6488  166.6713 C.ar    1  UNL1        0.2382
     13 O         143.9960  142.2325  166.3696 O.2     1  UNL1       -0.2830
     14 H         139.5499  141.6526  172.4076 H       1  UNL1        0.2922
     15 H         144.7069  143.4224  169.5197 H       1  UNL1        0.2922
     16 C         139.7299  139.7136  164.8025 C.ar    1  UNL1        0.0379
     17 C         139.9115  138.2465  164.5481 C.ar    1  UNL1        0.0062
     18 C         139.1269  137.5708  163.4629 C.ar    1  UNL1        0.0367
     19 C         138.1608  138.3622  162.6320 C.ar    1  UNL1        0.1337
     20 O         137.3762  137.6864  161.5467 O.3     1  UNL1       -0.5055
     21 C         137.9792  139.8292  162.8864 C.ar    1  UNL1        0.0367
     22 C         138.7638  140.5049  163.9716 C.ar    1  UNL1        0.0062
     23 H         137.4896  136.7700  161.3878 H       1  UNL1        0.2922
     24 O         142.4268  140.8809  164.1991 O.3     1  UNL1       -0.4441
     25 C         143.0054  143.2937  161.1017 C.3     1  UNL1        0.2306
     26 C         141.9372  144.3199  161.3384 C.3     1  UNL1        0.1804
     27 O         141.7740  145.4662  160.3848 O.3     1  UNL1       -0.3785
     28 C         141.0322  144.1998  162.5286 C.3     1  UNL1        0.1494
     29 C         139.9641  145.2259  162.7652 C.3     1  UNL1        0.0349
     30 O         141.1954  143.0534  163.4822 O.3     1  UNL1       -0.3186
     31 C         142.2636  142.0272  163.2455 C.3     1  UNL1        0.3194
     32 C         143.1686  142.1474  162.0553 C.3     1  UNL1        0.2240
     33 O         144.2367  141.1212  161.8187 O.3     1  UNL1       -0.3758
     34 H         141.0443  146.0322  160.6815 H       1  UNL1        0.2106
     35 H         144.2058  140.4543  162.5223 H       1  UNL1        0.2107
     36 O         143.9103  143.4139  159.9116 O.3     1  UNL1       -0.4468
     37 C         143.1188  143.2004  157.4462 C.3     1  UNL1        0.1212
     38 C         143.6644  142.5724  158.6944 C.2     1  UNL1        0.3176
     39 O         143.9640  141.1030  158.7254 O.2     1  UNL1       -0.2501
@<TRIPOS>BOND
     1    37    38    1
     2    38    39    2
     3    38    36    1
     4    25    36    1
     5    25    26    1
     6    26    27    1
     7    26    28    1
     8    28    29    1
     9    28    30    1
    10    30    31    1
    11    31    24    1
    12    24     1    1
    13     1     2   ar
    14     2    16    1
    15    16    17   ar
    16    17    18   ar
    17    18    19   ar
    18    19    20    1
    19    19    21   ar
    20    21    22   ar
    21     2     3   ar
    22     3     4   ar
    23     4     5   ar
    24     5     6   ar
    25     6     7    1
    26     6     8   ar
    27     8     9   ar
    28     9    10    1
    29     9    11   ar
    30    11    12   ar
    31    12    13    2
    32    31    32    1
    33    32    33    1
    34    32    25    1
    35    12     1   ar
    36    22    16   ar
    37    11     4   ar
    38    27    34    1
    39    20    23    1
    40     7    14    1
    41    10    15    1
    42    33    35    1
@<TRIPOS>MOLECULE
*****
 39 42 0 0 0
SMALL
GASTEIGER

@<TRIPOS>ATOM
      1 C         141.9606  142.6257  166.2207 C.ar    1  UNL1        0.2144
      2 C         140.5913  142.0998  165.9072 C.ar    1  UNL1        0.1822
      3 O         139.8503  141.2834  166.9242 O.2     1  UNL1       -0.4500
      4 C         140.4787  140.9930  168.2550 C.ar    1  UNL1        0.1545
      5 C         139.7377  140.1766  169.2721 C.ar    1  UNL1        0.0744
      6 C         140.3661  139.8862  170.6028 C.ar    1  UNL1        0.1397
      7 O         139.6251  139.0698  171.6199 O.3     1  UNL1       -0.5053
      8 C         141.7354  140.4121  170.9164 C.ar    1  UNL1        0.0735
      9 C         142.4764  141.2284  169.8993 C.ar    1  UNL1        0.1428
     10 O         143.8457  141.7543  170.2129 O.3     1  UNL1       -0.5052
     11 C         141.8480  141.5188  168.5686 C.ar    1  UNL1        0.1104
     12 C         142.5890  142.3352  167.5514 C.ar    1  UNL1        0.2382
     13 O         143.9583  142.8611  167.8650 O.2     1  UNL1       -0.2830
     14 H         138.7697  138.7413  171.4241 H       1  UNL1        0.2922
     15 H         144.2382  141.5729  171.0441 H       1  UNL1        0.2922
     16 C         139.9629  142.3903  164.5764 C.ar    1  UNL1        0.0379
     17 C         139.3401  143.7300  164.3175 C.ar    1  UNL1        0.0062
     18 C         138.7117  144.0204  162.9868 C.ar    1  UNL1        0.0367
     19 C         138.7063  142.9711  161.9150 C.ar    1  UNL1        0.1337
     20 O         138.0779  143.2616  160.5842 O.3     1  UNL1       -0.5055
     21 C         139.3292  141.6314  162.1738 C.ar    1  UNL1        0.0367
     22 C         139.9575  141.3409  163.5045 C.ar    1  UNL1        0.0062
     23 H         137.6888  144.0985  160.4225 H       1  UNL1        0.2922
     24 O         142.7016  143.4420  165.2036 O.3     1  UNL1       -0.4441
     25 C         142.9764  143.1679  161.2540 C.3     1  UNL1        0.2306
     26 C         143.4763  141.7620  161.1015 C.3     1  UNL1        0.1804
     27 O         143.7345  141.2020  159.7341 O.3     1  UNL1       -0.3785
     28 C         143.7180  140.9160  162.3164 C.3     1  UNL1        0.1494
     29 C         144.2179  139.5100  162.1639 C.3     1  UNL1        0.0349
     30 O         143.4598  141.4760  163.6837 O.3     1  UNL1       -0.3186
     31 C         142.9598  142.8820  163.8362 C.3     1  UNL1        0.3194
     32 C         142.7181  143.7280  162.6214 C.3     1  UNL1        0.2240
     33 O         142.2182  145.1339  162.7739 O.3     1  UNL1       -0.3758
     34 H         144.0512  140.2885  159.8133 H       1  UNL1        0.2106
     35 H         142.1046  145.3363  163.7157 H       1  UNL1        0.2107
     36 O         142.7346  144.0139  160.0391 O.3     1  UNL1       -0.4468
     37 C         140.9509  142.9774  158.4598 C.3     1  UNL1        0.1212
     38 C         141.3720  144.0560  159.4135 C.2     1  UNL1        0.3176
     39 O         140.4304  145.1765  159.7416 O.2     1  UNL1       -0.2501
@<TRIPOS>BOND
     1    37    38    1
     2    38    39    2
     3    38    36    1
     4    25    36    1
     5    25    26    1
     6    26    27    1
     7    26    28    1
     8    28    29    1
     9    28    30    1
    10    30    31    1
    11    31    24    1
    12    24     1    1
    13     1     2   ar
    14     2    16    1
    15    16    17   ar
    16    17    18   ar
    17    18    19   ar
    18    19    20    1
    19    19    21   ar
    20    21    22   ar
    21     2     3   ar
    22     3     4   ar
    23     4     5   ar
    24     5     6   ar
    25     6     7    1
    26     6     8   ar
    27     8     9   ar
    28     9    10    1
    29     9    11   ar
    30    11    12   ar
    31    12    13    2
    32    31    32    1
    33    32    33    1
    34    32    25    1
    35    12     1   ar
    36    22    16   ar
    37    11     4   ar
    38    27    34    1
    39    20    23    1
    40     7    14    1
    41    10    15    1
    42    33    35    1
