@<TRIPOS>MOLECULE
*****
 26 29 0 0 0
SMALL
GASTEIGER

@<TRIPOS>ATOM
      1 C         142.5046  139.6870  166.8408 C.ar    1  UNL1        0.0873
      2 C         141.6556  140.8992  167.0848 C.ar    1  UNL1        0.0400
      3 C         141.3037  141.2985  168.4873 C.ar    1  UNL1        0.1032
      4 N         140.4546  142.5108  168.7313 N.ar    1  UNL1       -0.2405
      5 C         140.1028  142.9100  170.1337 C.ar    1  UNL1        0.1195
      6 C         140.6000  142.0970  171.2921 C.ar    1  UNL1        0.1196
      7 N         141.4490  140.8848  171.0481 N.ar    1  UNL1       -0.2379
      8 C         141.8008  140.4855  169.6457 C.ar    1  UNL1        0.1302
      9 C         142.6499  139.2732  169.4016 C.ar    1  UNL1        0.1478
     10 N         143.0017  138.8740  167.9992 N.ar    1  UNL1       -0.2292
     11 C         142.1522  137.8362  161.9081 C.3     1  UNL1        0.1538
     12 N         142.6944  138.4369  163.1711 N.ar    1  UNL1       -0.2473
     13 C         141.9251  138.6707  164.4374 C.ar    1  UNL1        0.0982
     14 C         142.8565  139.2876  165.4384 C.ar    1  UNL1        0.0573
     15 C         144.2014  139.4351  164.7908 C.ar    1  UNL1        0.1231
     16 N         144.1013  138.9094  163.3895 N.ar    1  UNL1       -0.1675
     17 N         143.1471  138.4602  170.5600 N.pl3   1  UNL1       -0.3148
     18 H         143.0909  138.8206  171.4745 H       1  UNL1        0.1483
     19 C         143.7299  137.0982  170.3252 C.3     1  UNL1        0.1195
     20 C         144.6104  136.4698  171.3643 C.3     1  UNL1        0.1504
     21 C         144.3286  135.0765  171.8431 C.3     1  UNL1        0.1003
     22 N         145.2090  134.4481  172.8823 N.3     1  UNL1       -0.2933
     23 C         146.3712  135.2130  173.4427 C.3     1  UNL1        0.1011
     24 C         146.6531  136.6063  172.9639 C.3     1  UNL1        0.1592
     25 O         145.7727  137.2348  171.9248 O.3     1  UNL1       -0.3516
     26 H         145.5886  133.5957  172.4702 H       1  UNL1        0.1234
@<TRIPOS>BOND
     1    11    12    1
     2    12    13   ar
     3    13    14   ar
     4    14     1    1
     5     1     2   ar
     6     2     3   ar
     7     3     4   ar
     8     4     5   ar
     9     5     6   ar
    10     6     7   ar
    11     7     8   ar
    12     8     9   ar
    13     9    17    1
    14    17    19    1
    15    20    19    1
    16    20    21    1
    17    21    22    1
    18    22    23    1
    19    23    24    1
    20    24    25    1
    21     9    10   ar
    22    14    15   ar
    23    15    16   ar
    24    16    12   ar
    25    10     1   ar
    26     8     3   ar
    27    25    20    1
    28    17    18    1
    29    22    26    1
@<TRIPOS>MOLECULE
*****
 26 29 0 0 0
SMALL
GASTEIGER

@<TRIPOS>ATOM
      1 C         139.3621  142.5168  164.9609 C.ar    1  UNL1        0.0873
      2 C         140.2028  142.8850  166.1474 C.ar    1  UNL1        0.0400
      3 C         140.3534  141.9221  167.2877 C.ar    1  UNL1        0.1032
      4 N         141.1941  142.2903  168.4741 N.ar    1  UNL1       -0.2405
      5 C         141.3447  141.3275  169.6144 C.ar    1  UNL1        0.1195
      6 C         140.6546  139.9964  169.5682 C.ar    1  UNL1        0.1196
      7 N         139.8139  139.6283  168.3818 N.ar    1  UNL1       -0.2379
      8 C         139.6633  140.5911  167.2415 C.ar    1  UNL1        0.1302
      9 C         138.8226  140.2229  166.0550 C.ar    1  UNL1        0.1478
     10 N         138.6720  141.1858  164.9148 N.ar    1  UNL1       -0.2292
     11 C         140.4196  145.5009  160.7350 C.3     1  UNL1        0.1538
     12 N         139.6976  144.8513  161.8782 N.ar    1  UNL1       -0.2473
     13 C         140.2844  143.8675  162.8467 C.ar    1  UNL1        0.0982
     14 C         139.2115  143.4797  163.8206 C.ar    1  UNL1        0.0573
     15 C         137.9617  144.2236  163.4540 C.ar    1  UNL1        0.1231
     16 N         138.2621  145.0713  162.2535 N.ar    1  UNL1       -0.1675
     17 N         138.1325  138.8919  166.0089 N.pl3   1  UNL1       -0.3148
     18 H         137.2182  138.7990  166.3621 H       1  UNL1        0.1483
     19 C         138.8353  137.7026  165.4245 C.3     1  UNL1        0.1195
     20 C         139.4397  137.7870  164.0543 C.3     1  UNL1        0.1504
     21 C         140.8087  137.2282  163.8027 C.3     1  UNL1        0.1003
     22 N         141.4131  137.3126  162.4324 N.3     1  UNL1       -0.2933
     23 C         140.6484  137.9560  161.3138 C.3     1  UNL1        0.1011
     24 C         139.2793  138.5149  161.5654 C.3     1  UNL1        0.1592
     25 O         138.6749  138.4304  162.9356 O.3     1  UNL1       -0.3516
     26 H         141.6142  136.3564  162.1398 H       1  UNL1        0.1234
@<TRIPOS>BOND
     1    11    12    1
     2    12    13   ar
     3    13    14   ar
     4    14     1    1
     5     1     2   ar
     6     2     3   ar
     7     3     4   ar
     8     4     5   ar
     9     5     6   ar
    10     6     7   ar
    11     7     8   ar
    12     8     9   ar
    13     9    17    1
    14    17    19    1
    15    20    19    1
    16    20    21    1
    17    21    22    1
    18    22    23    1
    19    23    24    1
    20    24    25    1
    21     9    10   ar
    22    14    15   ar
    23    15    16   ar
    24    16    12   ar
    25    10     1   ar
    26     8     3   ar
    27    25    20    1
    28    17    18    1
    29    22    26    1
@<TRIPOS>MOLECULE
*****
 26 29 0 0 0
SMALL
GASTEIGER

@<TRIPOS>ATOM
      1 C         139.4613  140.3851  166.2584 C.ar    1  UNL1        0.0873
      2 C         139.2001  139.2149  165.3572 C.ar    1  UNL1        0.0400
      3 C         138.6793  139.4393  163.9684 C.ar    1  UNL1        0.1032
      4 N         138.4181  138.2692  163.0671 N.ar    1  UNL1       -0.2405
      5 C         137.8974  138.4936  161.6785 C.ar    1  UNL1        0.1195
      6 C         137.6379  139.8883  161.1911 C.ar    1  UNL1        0.1196
      7 N         137.8992  141.0585  162.0924 N.ar    1  UNL1       -0.2379
      8 C         138.4199  140.8340  163.4810 C.ar    1  UNL1        0.1302
      9 C         138.6811  142.0043  164.3824 C.ar    1  UNL1        0.1478
     10 N         139.2019  141.7798  165.7711 N.ar    1  UNL1       -0.2292
     11 C         142.7323  139.6282  170.3339 C.3     1  UNL1        0.1538
     12 N         141.4856  139.8127  169.5204 N.ar    1  UNL1       -0.2473
     13 C         141.4242  140.0246  168.0367 C.ar    1  UNL1        0.0982
     14 C         139.9821  140.1606  167.6472 C.ar    1  UNL1        0.0573
     15 C         139.1521  140.0328  168.8901 C.ar    1  UNL1        0.1231
     16 N         140.0813  139.8178  170.0478 N.ar    1  UNL1       -0.1675
     17 N         138.4217  143.3989  163.8950 N.pl3   1  UNL1       -0.3148
     18 H         137.6514  143.5804  163.3094 H       1  UNL1        0.1483
     19 C         139.3358  144.5171  164.2999 C.3     1  UNL1        0.1195
     20 C         140.7698  144.5102  163.8600 C.3     1  UNL1        0.1504
     21 C         141.1638  145.1786  162.5763 C.3     1  UNL1        0.1003
     22 N         142.5978  145.1716  162.1364 N.3     1  UNL1       -0.2933
     23 C         143.6379  144.4963  162.9802 C.3     1  UNL1        0.1011
     24 C         143.2439  143.8278  164.2640 C.3     1  UNL1        0.1592
     25 O         141.8099  143.8348  164.7039 O.3     1  UNL1       -0.3516
     26 H         142.8819  146.1468  162.0433 H       1  UNL1        0.1234
@<TRIPOS>BOND
     1    11    12    1
     2    12    13   ar
     3    13    14   ar
     4    14     1    1
     5     1     2   ar
     6     2     3   ar
     7     3     4   ar
     8     4     5   ar
     9     5     6   ar
    10     6     7   ar
    11     7     8   ar
    12     8     9   ar
    13     9    17    1
    14    17    19    1
    15    20    19    1
    16    20    21    1
    17    21    22    1
    18    22    23    1
    19    23    24    1
    20    24    25    1
    21     9    10   ar
    22    14    15   ar
    23    15    16   ar
    24    16    12   ar
    25    10     1   ar
    26     8     3   ar
    27    25    20    1
    28    17    18    1
    29    22    26    1
@<TRIPOS>MOLECULE
*****
 26 29 0 0 0
SMALL
GASTEIGER

@<TRIPOS>ATOM
      1 C         139.7361  141.1716  166.5535 C.ar    1  UNL1        0.0873
      2 C         140.2245  142.5379  166.1730 C.ar    1  UNL1        0.0400
      3 C         139.7718  143.1653  164.8879 C.ar    1  UNL1        0.1032
      4 N         140.2602  144.5315  164.5074 N.ar    1  UNL1       -0.2405
      5 C         139.8075  145.1589  163.2224 C.ar    1  UNL1        0.1195
      6 C         138.8664  144.4200  162.3178 C.ar    1  UNL1        0.1196
      7 N         138.3780  143.0537  162.6982 N.ar    1  UNL1       -0.2379
      8 C         138.8307  142.4264  163.9833 C.ar    1  UNL1        0.1302
      9 C         138.3423  141.0601  164.3638 C.ar    1  UNL1        0.1478
     10 N         138.7950  140.4327  165.6489 N.ar    1  UNL1       -0.2292
     11 C         142.7271  138.8114  170.2092 C.3     1  UNL1        0.1538
     12 N         141.5636  139.4593  169.5190 N.ar    1  UNL1       -0.2473
     13 C         141.5522  139.9823  168.1130 C.ar    1  UNL1        0.0982
     14 C         140.1888  140.5442  167.8386 C.ar    1  UNL1        0.0573
     15 C         139.3576  140.3687  169.0748 C.ar    1  UNL1        0.1231
     16 N         140.2072  139.6982  170.1134 N.ar    1  UNL1       -0.1675
     17 N         137.4012  140.3212  163.4592 N.pl3   1  UNL1       -0.3148
     18 H         136.4300  140.3710  163.6126 H       1  UNL1        0.1483
     19 C         137.9398  139.5064  162.3208 C.3     1  UNL1        0.1195
     20 C         139.3485  138.9932  162.3663 C.3     1  UNL1        0.1504
     21 C         139.6207  137.5881  162.8152 C.3     1  UNL1        0.1003
     22 N         141.0294  137.0749  162.8608 N.3     1  UNL1       -0.2933
     23 C         142.1660  137.9668  162.4575 C.3     1  UNL1        0.1011
     24 C         141.8938  139.3719  162.0085 C.3     1  UNL1        0.1592
     25 O         140.4851  139.8852  161.9629 O.3     1  UNL1       -0.3516
     26 H         141.0651  136.2582  162.2507 H       1  UNL1        0.1234
@<TRIPOS>BOND
     1    11    12    1
     2    12    13   ar
     3    13    14   ar
     4    14     1    1
     5     1     2   ar
     6     2     3   ar
     7     3     4   ar
     8     4     5   ar
     9     5     6   ar
    10     6     7   ar
    11     7     8   ar
    12     8     9   ar
    13     9    17    1
    14    17    19    1
    15    20    19    1
    16    20    21    1
    17    21    22    1
    18    22    23    1
    19    23    24    1
    20    24    25    1
    21     9    10   ar
    22    14    15   ar
    23    15    16   ar
    24    16    12   ar
    25    10     1   ar
    26     8     3   ar
    27    25    20    1
    28    17    18    1
    29    22    26    1
@<TRIPOS>MOLECULE
*****
 26 29 0 0 0
SMALL
GASTEIGER

@<TRIPOS>ATOM
      1 C         140.7449  142.5909  165.8169 C.ar    1  UNL1        0.0873
      2 C         140.5451  142.7904  167.2901 C.ar    1  UNL1        0.0400
      3 C         141.2648  141.9121  168.2703 C.ar    1  UNL1        0.1032
      4 N         141.0650  142.1116  169.7435 N.ar    1  UNL1       -0.2405
      5 C         141.7847  141.2334  170.7236 C.ar    1  UNL1        0.1195
      6 C         142.7041  140.1556  170.2305 C.ar    1  UNL1        0.1196
      7 N         142.9039  139.9561  168.7574 N.ar    1  UNL1       -0.2379
      8 C         142.1842  140.8344  167.7773 C.ar    1  UNL1        0.1302
      9 C         142.3839  140.6349  166.3040 C.ar    1  UNL1        0.1478
     10 N         141.6643  141.5132  165.3239 N.ar    1  UNL1       -0.2292
     11 C         139.7666  146.0924  161.9876 C.3     1  UNL1        0.1538
     12 N         139.5756  145.0787  163.0766 N.ar    1  UNL1       -0.2473
     13 C         140.6665  144.4028  163.8532 C.ar    1  UNL1        0.0982
     14 C         140.0252  143.4692  164.8367 C.ar    1  UNL1        0.0573
     15 C         138.5380  143.5682  164.6680 C.ar    1  UNL1        0.1231
     16 N         138.2601  144.5629  163.5802 N.ar    1  UNL1       -0.1675
     17 N         143.3034  139.5571  165.8110 N.pl3   1  UNL1       -0.3148
     18 H         144.2572  139.7525  165.6650 H       1  UNL1        0.1483
     19 C         142.7696  138.1818  165.5403 C.3     1  UNL1        0.1195
     20 C         141.5723  138.0028  164.6545 C.3     1  UNL1        0.1504
     21 C         141.7562  137.6967  163.1977 C.3     1  UNL1        0.1003
     22 N         140.5589  137.5177  162.3120 N.3     1  UNL1       -0.2933
     23 C         139.1778  137.6449  162.8831 C.3     1  UNL1        0.1011
     24 C         138.9938  137.9510  164.3400 C.3     1  UNL1        0.1592
     25 O         140.1911  138.1300  165.2257 O.3     1  UNL1       -0.3516
     26 H         140.6267  136.5824  161.9107 H       1  UNL1        0.1234
@<TRIPOS>BOND
     1    11    12    1
     2    12    13   ar
     3    13    14   ar
     4    14     1    1
     5     1     2   ar
     6     2     3   ar
     7     3     4   ar
     8     4     5   ar
     9     5     6   ar
    10     6     7   ar
    11     7     8   ar
    12     8     9   ar
    13     9    17    1
    14    17    19    1
    15    20    19    1
    16    20    21    1
    17    21    22    1
    18    22    23    1
    19    23    24    1
    20    24    25    1
    21     9    10   ar
    22    14    15   ar
    23    15    16   ar
    24    16    12   ar
    25    10     1   ar
    26     8     3   ar
    27    25    20    1
    28    17    18    1
    29    22    26    1
@<TRIPOS>MOLECULE
*****
 26 29 0 0 0
SMALL
GASTEIGER

@<TRIPOS>ATOM
      1 C         140.9674  142.2876  166.4434 C.ar    1  UNL1        0.0873
      2 C         142.3117  142.1030  165.8042 C.ar    1  UNL1        0.0400
      3 C         142.6717  142.8844  164.5754 C.ar    1  UNL1        0.1032
      4 N         144.0160  142.6999  163.9363 N.ar    1  UNL1       -0.2405
      5 C         144.3759  143.4813  162.7075 C.ar    1  UNL1        0.1195
      6 C         143.3914  144.4473  162.1180 C.ar    1  UNL1        0.1196
      7 N         142.0470  144.6319  162.7571 N.ar    1  UNL1       -0.2379
      8 C         141.6871  143.8504  163.9858 C.ar    1  UNL1        0.1302
      9 C         140.3427  144.0350  164.6251 C.ar    1  UNL1        0.1478
     10 N         139.9829  143.2535  165.8538 N.ar    1  UNL1       -0.2292
     11 C         140.7394  140.6257  171.4501 C.3     1  UNL1        0.1538
     12 N         140.5027  140.7423  169.9736 N.ar    1  UNL1       -0.2473
     13 C         141.1225  141.7566  169.0585 C.ar    1  UNL1        0.0982
     14 C         140.6074  141.5061  167.6722 C.ar    1  UNL1        0.0573
     15 C         139.6693  140.3371  167.7303 C.ar    1  UNL1        0.1231
     16 N         139.6046  139.8650  169.1526 N.ar    1  UNL1       -0.1675
     17 N         139.3582  145.0010  164.0355 N.pl3   1  UNL1       -0.3148
     18 H         139.5831  145.9575  163.9749 H       1  UNL1        0.1483
     19 C         138.0311  144.5096  163.5383 C.3     1  UNL1        0.1195
     20 C         137.9609  143.2890  162.6693 C.3     1  UNL1        0.1504
     21 C         137.3198  142.0356  163.1869 C.3     1  UNL1        0.1003
     22 N         137.2496  140.8150  162.3179 N.3     1  UNL1       -0.2933
     23 C         137.8206  140.8477  160.9312 C.3     1  UNL1        0.1011
     24 C         138.4618  142.1011  160.4135 C.3     1  UNL1        0.1592
     25 O         138.5319  143.3218  161.2825 O.3     1  UNL1       -0.3516
     26 H         136.2623  140.5766  162.2243 H       1  UNL1        0.1234
@<TRIPOS>BOND
     1    11    12    1
     2    12    13   ar
     3    13    14   ar
     4    14     1    1
     5     1     2   ar
     6     2     3   ar
     7     3     4   ar
     8     4     5   ar
     9     5     6   ar
    10     6     7   ar
    11     7     8   ar
    12     8     9   ar
    13     9    17    1
    14    17    19    1
    15    20    19    1
    16    20    21    1
    17    21    22    1
    18    22    23    1
    19    23    24    1
    20    24    25    1
    21     9    10   ar
    22    14    15   ar
    23    15    16   ar
    24    16    12   ar
    25    10     1   ar
    26     8     3   ar
    27    25    20    1
    28    17    18    1
    29    22    26    1
@<TRIPOS>MOLECULE
*****
 26 29 0 0 0
SMALL
GASTEIGER

@<TRIPOS>ATOM
      1 C         140.2369  140.0632  166.0622 C.ar    1  UNL1        0.0873
      2 C         140.4227  139.0036  165.0169 C.ar    1  UNL1        0.0400
      3 C         139.5870  139.0241  163.7714 C.ar    1  UNL1        0.1032
      4 N         139.7728  137.9646  162.7260 N.ar    1  UNL1       -0.2405
      5 C         138.9370  137.9850  161.4806 C.ar    1  UNL1        0.1195
      6 C         137.9155  139.0650  161.2806 C.ar    1  UNL1        0.1196
      7 N         137.7296  140.1246  162.3260 N.ar    1  UNL1       -0.2379
      8 C         138.5654  140.1041  163.5714 C.ar    1  UNL1        0.1302
      9 C         138.3796  141.1636  164.6168 C.ar    1  UNL1        0.1478
     10 N         139.2153  141.1432  165.8622 N.ar    1  UNL1       -0.2292
     11 C         141.8655  140.8062  171.0298 C.3     1  UNL1        0.1538
     12 N         141.8212  140.3843  169.5911 N.ar    1  UNL1       -0.2473
     13 C         140.6942  140.6342  168.6332 C.ar    1  UNL1        0.0982
     14 C         141.0727  140.0427  167.3077 C.ar    1  UNL1        0.0573
     15 C         142.4335  139.4272  167.4463 C.ar    1  UNL1        0.1231
     16 N         142.8962  139.6383  168.8575 N.ar    1  UNL1       -0.1675
     17 N         137.3580  142.2436  164.4168 N.pl3   1  UNL1       -0.3148
     18 H         136.4554  142.0144  164.0976 H       1  UNL1        0.1483
     19 C         137.7117  143.6729  164.7031 C.3     1  UNL1        0.1195
     20 C         138.7943  144.3498  163.9158 C.3     1  UNL1        0.1504
     21 C         140.1970  144.3851  164.4459 C.3     1  UNL1        0.1003
     22 N         141.2796  145.0620  163.6586 N.3     1  UNL1       -0.2933
     23 C         140.9594  145.7037  162.3412 C.3     1  UNL1        0.1011
     24 C         139.5566  145.6685  161.8110 C.3     1  UNL1        0.1592
     25 O         138.4740  144.9916  162.5983 O.3     1  UNL1       -0.3516
     26 H         141.9955  144.3585  163.4772 H       1  UNL1        0.1234
@<TRIPOS>BOND
     1    11    12    1
     2    12    13   ar
     3    13    14   ar
     4    14     1    1
     5     1     2   ar
     6     2     3   ar
     7     3     4   ar
     8     4     5   ar
     9     5     6   ar
    10     6     7   ar
    11     7     8   ar
    12     8     9   ar
    13     9    17    1
    14    17    19    1
    15    20    19    1
    16    20    21    1
    17    21    22    1
    18    22    23    1
    19    23    24    1
    20    24    25    1
    21     9    10   ar
    22    14    15   ar
    23    15    16   ar
    24    16    12   ar
    25    10     1   ar
    26     8     3   ar
    27    25    20    1
    28    17    18    1
    29    22    26    1
@<TRIPOS>MOLECULE
*****
 26 29 0 0 0
SMALL
GASTEIGER

@<TRIPOS>ATOM
      1 C         141.0786  139.0902  165.4412 C.ar    1  UNL1        0.0873
      2 C         142.3984  139.1406  164.7301 C.ar    1  UNL1        0.0400
      3 C         142.5079  138.6511  163.3164 C.ar    1  UNL1        0.1032
      4 N         143.8277  138.7016  162.6054 N.ar    1  UNL1       -0.2405
      5 C         143.9371  138.2121  161.1917 C.ar    1  UNL1        0.1195
      6 C         142.7268  137.6722  160.4892 C.ar    1  UNL1        0.1196
      7 N         141.4070  137.6218  161.2002 N.ar    1  UNL1       -0.2379
      8 C         141.2976  138.1112  162.6138 C.ar    1  UNL1        0.1302
      9 C         139.9778  138.0608  163.3250 C.ar    1  UNL1        0.1478
     10 N         139.8683  138.5503  164.7386 N.ar    1  UNL1       -0.2292
     11 C         139.0874  140.7788  170.0308 C.3     1  UNL1        0.1538
     12 N         140.0538  140.3558  168.9645 N.ar    1  UNL1       -0.2473
     13 C         139.6965  139.9045  167.5793 C.ar    1  UNL1        0.0982
     14 C         140.9692  139.5797  166.8549 C.ar    1  UNL1        0.0573
     15 C         142.1130  139.8302  167.7923 C.ar    1  UNL1        0.1231
     16 N         141.5474  140.3099  169.0961 N.ar    1  UNL1       -0.1675
     17 N         138.7674  137.5209  162.6224 N.pl3   1  UNL1       -0.3148
     18 H         138.4936  136.5856  162.7619 H       1  UNL1        0.1483
     19 C         137.9743  138.4061  161.7073 C.3     1  UNL1        0.1195
     20 C         137.9789  139.8921  161.9113 C.3     1  UNL1        0.1504
     21 C         138.5029  140.7954  160.8345 C.3     1  UNL1        0.1003
     22 N         138.5075  142.2814  161.0385 N.3     1  UNL1       -0.2933
     23 C         137.9882  142.8642  162.3193 C.3     1  UNL1        0.1011
     24 C         137.4642  141.9610  163.3963 C.3     1  UNL1        0.1592
     25 O         137.4596  140.4749  163.1922 O.3     1  UNL1       -0.3516
     26 H         137.9505  142.6838  160.2847 H       1  UNL1        0.1234
@<TRIPOS>BOND
     1    11    12    1
     2    12    13   ar
     3    13    14   ar
     4    14     1    1
     5     1     2   ar
     6     2     3   ar
     7     3     4   ar
     8     4     5   ar
     9     5     6   ar
    10     6     7   ar
    11     7     8   ar
    12     8     9   ar
    13     9    17    1
    14    17    19    1
    15    20    19    1
    16    20    21    1
    17    21    22    1
    18    22    23    1
    19    23    24    1
    20    24    25    1
    21     9    10   ar
    22    14    15   ar
    23    15    16   ar
    24    16    12   ar
    25    10     1   ar
    26     8     3   ar
    27    25    20    1
    28    17    18    1
    29    22    26    1
@<TRIPOS>MOLECULE
*****
 26 29 0 0 0
SMALL
GASTEIGER

@<TRIPOS>ATOM
      1 C         140.0520  142.2028  166.1953 C.ar    1  UNL1        0.0873
      2 C         139.6948  140.9203  165.5043 C.ar    1  UNL1        0.0400
      3 C         139.0360  140.9525  164.1570 C.ar    1  UNL1        0.1032
      4 N         138.6789  139.6700  163.4659 N.ar    1  UNL1       -0.2405
      5 C         138.0201  139.7022  162.1188 C.ar    1  UNL1        0.1195
      6 C         137.7185  141.0169  161.4626 C.ar    1  UNL1        0.1196
      7 N         138.0757  142.2994  162.1537 N.ar    1  UNL1       -0.2379
      8 C         138.7344  142.2672  163.5008 C.ar    1  UNL1        0.1302
      9 C         139.0916  143.5497  164.1920 C.ar    1  UNL1        0.1478
     10 N         139.7504  143.5175  165.5392 N.ar    1  UNL1       -0.2292
     11 C         143.0990  140.7691  170.2624 C.3     1  UNL1        0.1538
     12 N         142.1113  141.5116  169.4120 N.ar    1  UNL1       -0.2473
     13 C         141.7238  141.1655  168.0047 C.ar    1  UNL1        0.0982
     14 C         140.7107  142.1706  167.5426 C.ar    1  UNL1        0.0573
     15 C         140.4721  143.1377  168.6640 C.ar    1  UNL1        0.1231
     16 N         141.3377  142.7305  169.8194 N.ar    1  UNL1       -0.1675
     17 N         138.7900  144.8645  163.5358 N.pl3   1  UNL1       -0.3148
     18 H         137.9554  145.3411  163.7492 H       1  UNL1        0.1483
     19 C         139.7599  145.4530  162.5546 C.3     1  UNL1        0.1195
     20 C         141.2127  145.0861  162.6241 C.3     1  UNL1        0.1504
     21 C         141.8507  144.3324  161.4950 C.3     1  UNL1        0.1003
     22 N         143.3035  143.9655  161.5645 N.3     1  UNL1       -0.2933
     23 C         144.1183  144.3523  162.7630 C.3     1  UNL1        0.1011
     24 C         143.4802  145.1060  163.8922 C.3     1  UNL1        0.1592
     25 O         142.0275  145.4729  163.8227 O.3     1  UNL1       -0.3516
     26 H         143.7534  144.3896  160.7533 H       1  UNL1        0.1234
@<TRIPOS>BOND
     1    11    12    1
     2    12    13   ar
     3    13    14   ar
     4    14     1    1
     5     1     2   ar
     6     2     3   ar
     7     3     4   ar
     8     4     5   ar
     9     5     6   ar
    10     6     7   ar
    11     7     8   ar
    12     8     9   ar
    13     9    17    1
    14    17    19    1
    15    20    19    1
    16    20    21    1
    17    21    22    1
    18    22    23    1
    19    23    24    1
    20    24    25    1
    21     9    10   ar
    22    14    15   ar
    23    15    16   ar
    24    16    12   ar
    25    10     1   ar
    26     8     3   ar
    27    25    20    1
    28    17    18    1
    29    22    26    1
