@<TRIPOS>MOLECULE
*****
 30 33 0 0 0
SMALL
GASTEIGER

@<TRIPOS>ATOM
      1 C         139.6299  146.4104  161.7291 C.3     1  UNL1        0.0324
      2 C         140.6503  145.3456  162.0029 C.ar    1  UNL1       -0.0071
      3 C         140.7334  144.7185  163.3629 C.ar    1  UNL1        0.0115
      4 C         141.7538  143.6537  163.6368 C.ar    1  UNL1        0.0476
      5 C         142.6910  143.2160  162.5505 C.ar    1  UNL1        0.0158
      6 C         142.6079  143.8431  161.1905 C.ar    1  UNL1        0.0156
      7 C         141.5875  144.9079  160.9167 C.ar    1  UNL1        0.0466
      8 N         141.8369  143.0266  164.9969 N.pl3   1  UNL1       -0.3061
      9 C         143.0917  142.5795  165.6865 C.3     1  UNL1        0.0923
     10 C         142.7101  142.0131  167.0220 C.3     1  UNL1        0.0391
     11 C         141.2194  142.1101  167.1578 C.3     1  UNL1        0.0790
     12 C         140.6797  142.7365  165.9062 C.3     1  UNL1        0.1067
     13 N         140.4104  141.6599  168.3379 N.3     1  UNL1       -0.2736
     14 C         139.7566  140.3195  168.4989 C.3     1  UNL1        0.0721
     15 C         139.0553  140.3022  169.8248 C.3     1  UNL1        0.0187
     16 C         139.2757  141.6318  170.4832 C.3     1  UNL1        0.0174
     17 C         140.1132  142.4709  169.5642 C.3     1  UNL1        0.0576
     18 C         140.5728  143.8746  169.8257 C.3     1  UNL1        0.0173
     19 N         141.5044  145.5350  159.5565 N.am    1  UNL1       -0.2806
     20 C         140.4552  145.0824  158.5848 C.2     1  UNL1        0.2493
     21 O         139.4890  144.0027  158.9732 O.2     1  UNL1       -0.2698
     22 H         142.1385  146.2437  159.3016 H       1  UNL1        0.1552
     23 C         140.3721  145.7095  157.2247 C.ar    1  UNL1        0.0520
     24 C         139.4530  146.8714  156.9894 C.ar    1  UNL1        0.0338
     25 C         139.3699  147.4985  155.6294 C.ar    1  UNL1        0.1403
     26 F         138.4508  148.6604  155.3941 F       1  UNL1       -0.2042
     27 C         140.2058  146.9637  154.5046 C.ar    1  UNL1        0.0293
     28 C         141.1249  145.8018  154.7398 C.ar    1  UNL1       -0.0018
     29 C         141.2080  145.1747  156.0999 C.ar    1  UNL1       -0.0173
     30 C         142.1270  144.0128  156.3351 C.3     1  UNL1        0.0312
@<TRIPOS>BOND
     1     1     2    1
     2     2     3   ar
     3     3     4   ar
     4     4     8    1
     5     8     9    1
     6     9    10    1
     7    10    11    1
     8    11    13    1
     9    13    14    1
    10    14    15    1
    11    15    16    1
    12    16    17    1
    13    17    18    1
    14    11    12    1
    15     4     5   ar
    16     5     6   ar
    17     6     7   ar
    18     7    19    1
    19    19    20   am
    20    20    21    2
    21    20    23    1
    22    23    24   ar
    23    24    25   ar
    24    25    26    1
    25    25    27   ar
    26    27    28   ar
    27    28    29   ar
    28    29    30    1
    29     7     2   ar
    30    29    23   ar
    31    12     8    1
    32    17    13    1
    33    19    22    1
@<TRIPOS>MOLECULE
*****
 30 33 0 0 0
SMALL
GASTEIGER

@<TRIPOS>ATOM
      1 C         142.8206  145.1304  163.7823 C.3     1  UNL1        0.0324
      2 C         141.6841  144.4339  163.0945 C.ar    1  UNL1       -0.0071
      3 C         141.4424  144.6581  161.6312 C.ar    1  UNL1        0.0115
      4 C         140.3058  143.9616  160.9434 C.ar    1  UNL1        0.0476
      5 C         139.4109  143.0408  161.7189 C.ar    1  UNL1        0.0158
      6 C         139.6526  142.8166  163.1822 C.ar    1  UNL1        0.0156
      7 C         140.7892  143.5131  163.8700 C.ar    1  UNL1        0.0466
      8 N         140.0641  144.1858  159.4801 N.pl3   1  UNL1       -0.3061
      9 C         139.6384  143.1453  158.4871 C.3     1  UNL1        0.0923
     10 C         139.5169  143.8064  157.1462 C.3     1  UNL1        0.0391
     11 C         139.8675  145.2556  157.3104 C.3     1  UNL1        0.0790
     12 C         140.2056  145.4901  158.7528 C.3     1  UNL1        0.1067
     13 N         139.8780  146.2889  156.2231 N.3     1  UNL1       -0.2736
     14 C         138.9997  147.5027  156.1518 C.3     1  UNL1        0.0721
     15 C         139.3475  148.2537  154.9008 C.3     1  UNL1        0.0187
     16 C         140.4408  147.5040  154.1990 C.3     1  UNL1        0.0174
     17 C         140.7687  146.2897  155.0162 C.3     1  UNL1        0.0576
     18 C         141.8052  145.2573  154.6847 C.3     1  UNL1        0.0173
     19 N         141.0309  143.2889  165.3334 N.am    1  UNL1       -0.2806
     20 C         141.8107  142.0916  165.7899 C.2     1  UNL1        0.2493
     21 O         142.3488  141.1185  164.7831 O.2     1  UNL1       -0.2698
     22 H         140.6777  143.9275  165.9942 H       1  UNL1        0.1552
     23 C         142.0524  141.8673  167.2533 C.ar    1  UNL1        0.0520
     24 C         143.3017  142.3925  167.8962 C.ar    1  UNL1        0.0338
     25 C         143.5434  142.1683  169.3595 C.ar    1  UNL1        0.1403
     26 F         144.7928  142.6934  170.0024 F       1  UNL1       -0.2042
     27 C         142.5358  141.4189  170.1798 C.ar    1  UNL1        0.0293
     28 C         141.2865  140.8937  169.5369 C.ar    1  UNL1       -0.0018
     29 C         141.0447  141.1180  168.0736 C.ar    1  UNL1       -0.0173
     30 C         139.7954  140.5928  167.4307 C.3     1  UNL1        0.0312
@<TRIPOS>BOND
     1     1     2    1
     2     2     3   ar
     3     3     4   ar
     4     4     8    1
     5     8     9    1
     6     9    10    1
     7    10    11    1
     8    11    13    1
     9    13    14    1
    10    14    15    1
    11    15    16    1
    12    16    17    1
    13    17    18    1
    14    11    12    1
    15     4     5   ar
    16     5     6   ar
    17     6     7   ar
    18     7    19    1
    19    19    20   am
    20    20    21    2
    21    20    23    1
    22    23    24   ar
    23    24    25   ar
    24    25    26    1
    25    25    27   ar
    26    27    28   ar
    27    28    29   ar
    28    29    30    1
    29     7     2   ar
    30    29    23   ar
    31    12     8    1
    32    17    13    1
    33    19    22    1
@<TRIPOS>MOLECULE
*****
 30 33 0 0 0
SMALL
GASTEIGER

@<TRIPOS>ATOM
      1 C         141.1167  137.5168  164.5519 C.3     1  UNL1        0.0324
      2 C         141.9783  138.3238  163.6266 C.ar    1  UNL1       -0.0071
      3 C         141.9884  138.0223  162.1573 C.ar    1  UNL1        0.0115
      4 C         142.8500  138.8294  161.2319 C.ar    1  UNL1        0.0476
      5 C         143.7016  139.9379  161.7759 C.ar    1  UNL1        0.0158
      6 C         143.6915  140.2394  163.2452 C.ar    1  UNL1        0.0156
      7 C         142.8298  139.4324  164.1706 C.ar    1  UNL1        0.0466
      8 N         142.8601  138.5278  159.7625 N.pl3   1  UNL1       -0.3061
      9 C         143.0526  139.5254  158.6591 C.3     1  UNL1        0.0923
     10 C         142.9909  138.7899  157.3532 C.3     1  UNL1        0.0391
     11 C         142.7602  137.3376  157.6497 C.3     1  UNL1        0.0790
     12 C         142.6794  137.1757  159.1387 C.3     1  UNL1        0.1067
     13 N         142.6328  136.2401  156.6352 N.3     1  UNL1       -0.2736
     14 C         143.6711  135.2038  156.3224 C.3     1  UNL1        0.0721
     15 C         143.1247  134.3094  155.2493 C.3     1  UNL1        0.0187
     16 C         141.7487  134.7929  154.8990 C.3     1  UNL1        0.0174
     17 C         141.4447  135.9862  155.7556 C.3     1  UNL1        0.0576
     18 C         140.1754  136.7853  155.7359 C.3     1  UNL1        0.0173
     19 N         142.8198  139.7339  165.6400 N.am    1  UNL1       -0.2806
     20 C         141.9729  140.8526  166.1702 C.2     1  UNL1        0.2493
     21 O         141.1360  141.6698  165.2312 O.2     1  UNL1       -0.2698
     22 H         143.3690  139.1976  166.2563 H       1  UNL1        0.1552
     23 C         141.9628  141.1542  167.6396 C.ar    1  UNL1        0.0520
     24 C         143.1015  141.9099  168.2580 C.ar    1  UNL1        0.0338
     25 C         143.0914  142.2115  169.7273 C.ar    1  UNL1        0.1403
     26 F         144.2301  142.9672  170.3456 F       1  UNL1       -0.2042
     27 C         141.9428  141.7573  170.5783 C.ar    1  UNL1        0.0293
     28 C         140.8041  141.0015  169.9599 C.ar    1  UNL1       -0.0018
     29 C         140.8142  140.6999  168.4906 C.ar    1  UNL1       -0.0173
     30 C         139.6755  139.9442  167.8723 C.3     1  UNL1        0.0312
@<TRIPOS>BOND
     1     1     2    1
     2     2     3   ar
     3     3     4   ar
     4     4     8    1
     5     8     9    1
     6     9    10    1
     7    10    11    1
     8    11    13    1
     9    13    14    1
    10    14    15    1
    11    15    16    1
    12    16    17    1
    13    17    18    1
    14    11    12    1
    15     4     5   ar
    16     5     6   ar
    17     6     7   ar
    18     7    19    1
    19    19    20   am
    20    20    21    2
    21    20    23    1
    22    23    24   ar
    23    24    25   ar
    24    25    26    1
    25    25    27   ar
    26    27    28   ar
    27    28    29   ar
    28    29    30    1
    29     7     2   ar
    30    29    23   ar
    31    12     8    1
    32    17    13    1
    33    19    22    1
@<TRIPOS>MOLECULE
*****
 30 33 0 0 0
SMALL
GASTEIGER

@<TRIPOS>ATOM
      1 C         145.6229  141.9627  163.6443 C.3     1  UNL1        0.0324
      2 C         144.6659  142.3639  162.5612 C.ar    1  UNL1       -0.0071
      3 C         145.0182  142.1253  161.1228 C.ar    1  UNL1        0.0115
      4 C         144.0612  142.5265  160.0397 C.ar    1  UNL1        0.0476
      5 C         142.7518  143.1663  160.3949 C.ar    1  UNL1        0.0158
      6 C         142.3995  143.4049  161.8333 C.ar    1  UNL1        0.0156
      7 C         143.3565  143.0037  162.9164 C.ar    1  UNL1        0.0466
      8 N         144.4136  142.2879  158.6013 N.pl3   1  UNL1       -0.3061
      9 C         143.5292  141.6508  157.5708 C.3     1  UNL1        0.0923
     10 C         144.2813  141.6136  156.2736 C.3     1  UNL1        0.0391
     11 C         145.6306  142.2278  156.5022 C.3     1  UNL1        0.0790
     12 C         145.7123  142.6445  157.9409 C.3     1  UNL1        0.1067
     13 N         146.7087  142.3958  155.4730 N.3     1  UNL1       -0.2736
     14 C         148.0662  141.7586  155.5062 C.3     1  UNL1        0.0721
     15 C         148.8152  142.1995  154.2836 C.3     1  UNL1        0.0187
     16 C         147.9205  143.1090  153.4948 C.3     1  UNL1        0.0174
     17 C         146.6186  143.2304  154.2299 C.3     1  UNL1        0.0576
     18 C         145.4345  144.0435  153.7978 C.3     1  UNL1        0.0173
     19 N         143.0041  143.2423  164.3548 N.am    1  UNL1       -0.2806
     20 C         142.5367  142.1032  165.2114 C.2     1  UNL1        0.2493
     21 O         142.4217  140.7254  164.6297 O.2     1  UNL1       -0.2698
     22 H         143.0796  144.1466  164.7366 H       1  UNL1        0.1552
     23 C         142.1843  142.3418  166.6498 C.ar    1  UNL1        0.0520
     24 C         143.2354  142.2081  167.7116 C.ar    1  UNL1        0.0338
     25 C         142.8830  142.4467  169.1500 C.ar    1  UNL1        0.1403
     26 F         143.9341  142.3130  170.2118 F       1  UNL1       -0.2042
     27 C         141.4797  142.8190  169.5265 C.ar    1  UNL1        0.0293
     28 C         140.4286  142.9527  168.4647 C.ar    1  UNL1       -0.0018
     29 C         140.7809  142.7141  167.0264 C.ar    1  UNL1       -0.0173
     30 C         139.7299  142.8478  165.9646 C.3     1  UNL1        0.0312
@<TRIPOS>BOND
     1     1     2    1
     2     2     3   ar
     3     3     4   ar
     4     4     8    1
     5     8     9    1
     6     9    10    1
     7    10    11    1
     8    11    13    1
     9    13    14    1
    10    14    15    1
    11    15    16    1
    12    16    17    1
    13    17    18    1
    14    11    12    1
    15     4     5   ar
    16     5     6   ar
    17     6     7   ar
    18     7    19    1
    19    19    20   am
    20    20    21    2
    21    20    23    1
    22    23    24   ar
    23    24    25   ar
    24    25    26    1
    25    25    27   ar
    26    27    28   ar
    27    28    29   ar
    28    29    30    1
    29     7     2   ar
    30    29    23   ar
    31    12     8    1
    32    17    13    1
    33    19    22    1
@<TRIPOS>MOLECULE
*****
 30 33 0 0 0
SMALL
GASTEIGER

@<TRIPOS>ATOM
      1 C         141.3542  145.2233  163.3748 C.3     1  UNL1        0.0324
      2 C         140.8665  144.2610  162.3327 C.ar    1  UNL1       -0.0071
      3 C         140.6400  144.7299  160.9261 C.ar    1  UNL1        0.0115
      4 C         140.1522  143.7676  159.8840 C.ar    1  UNL1        0.0476
      5 C         139.8910  142.3362  160.2485 C.ar    1  UNL1        0.0158
      6 C         140.1175  141.8672  161.6552 C.ar    1  UNL1        0.0156
      7 C         140.6052  142.8296  162.6973 C.ar    1  UNL1        0.0466
      8 N         139.9257  144.2366  158.4772 N.pl3   1  UNL1       -0.3061
      9 C         139.5216  143.3778  157.3158 C.3     1  UNL1        0.0923
     10 C         139.4097  144.2572  156.1058 C.3     1  UNL1        0.0391
     11 C         139.7447  145.6596  156.5195 C.3     1  UNL1        0.0790
     12 C         140.0636  145.6468  157.9851 C.3     1  UNL1        0.1067
     13 N         139.7583  146.8634  155.6246 N.3     1  UNL1       -0.2736
     14 C         139.0268  148.1502  155.8668 C.3     1  UNL1        0.0721
     15 C         139.3223  149.0738  154.7223 C.3     1  UNL1        0.0187
     16 C         140.2365  148.3577  153.7729 C.3     1  UNL1        0.0174
     17 C         140.5060  146.9915  154.3306 C.3     1  UNL1        0.0576
     18 C         141.3712  145.9384  153.7042 C.3     1  UNL1        0.0173
     19 N         140.8317  142.3606  164.1040 N.am    1  UNL1       -0.2806
     20 C         139.7055  142.3881  165.0943 C.2     1  UNL1        0.2493
     21 O         138.3526  142.8846  164.6779 O.2     1  UNL1       -0.2698
     22 H         141.7196  142.0347  164.3773 H       1  UNL1        0.1552
     23 C         139.9320  141.9190  166.5010 C.ar    1  UNL1        0.0520
     24 C         140.5678  142.8355  167.5039 C.ar    1  UNL1        0.0338
     25 C         140.7943  142.3665  168.9106 C.ar    1  UNL1        0.1403
     26 F         141.4301  143.2830  169.9135 F       1  UNL1       -0.2042
     27 C         140.3850  140.9811  169.3143 C.ar    1  UNL1        0.0293
     28 C         139.7491  140.0647  168.3114 C.ar    1  UNL1       -0.0018
     29 C         139.5226  140.5336  166.9047 C.ar    1  UNL1       -0.0173
     30 C         138.8868  139.6172  165.9018 C.3     1  UNL1        0.0312
@<TRIPOS>BOND
     1     1     2    1
     2     2     3   ar
     3     3     4   ar
     4     4     8    1
     5     8     9    1
     6     9    10    1
     7    10    11    1
     8    11    13    1
     9    13    14    1
    10    14    15    1
    11    15    16    1
    12    16    17    1
    13    17    18    1
    14    11    12    1
    15     4     5   ar
    16     5     6   ar
    17     6     7   ar
    18     7    19    1
    19    19    20   am
    20    20    21    2
    21    20    23    1
    22    23    24   ar
    23    24    25   ar
    24    25    26    1
    25    25    27   ar
    26    27    28   ar
    27    28    29   ar
    28    29    30    1
    29     7     2   ar
    30    29    23   ar
    31    12     8    1
    32    17    13    1
    33    19    22    1
@<TRIPOS>MOLECULE
*****
 30 33 0 0 0
SMALL
GASTEIGER

@<TRIPOS>ATOM
      1 C         139.5671  138.0042  163.0650 C.3     1  UNL1        0.0324
      2 C         140.9332  138.2138  162.4821 C.ar    1  UNL1       -0.0071
      3 C         141.1382  138.1212  160.9991 C.ar    1  UNL1        0.0115
      4 C         142.5043  138.3308  160.4162 C.ar    1  UNL1        0.0476
      5 C         143.6655  138.6330  161.3163 C.ar    1  UNL1        0.0158
      6 C         143.4606  138.7255  162.7994 C.ar    1  UNL1        0.0156
      7 C         142.0944  138.5159  163.3822 C.ar    1  UNL1        0.0466
      8 N         142.7092  138.2383  158.9331 N.pl3   1  UNL1       -0.3061
      9 C         143.3309  139.2890  158.0617 C.3     1  UNL1        0.0923
     10 C         143.3343  138.7788  156.6511 C.3     1  UNL1        0.0391
     11 C         142.7147  137.4127  156.6507 C.3     1  UNL1        0.0790
     12 C         142.3284  137.0787  158.0611 C.3     1  UNL1        0.1067
     13 N         142.5163  136.5349  155.4507 N.3     1  UNL1       -0.2736
     14 C         141.8191  136.9225  154.1805 C.3     1  UNL1        0.0721
     15 C         141.8521  135.7425  153.2550 C.3     1  UNL1        0.0187
     16 C         142.5697  134.6257  153.9533 C.3     1  UNL1        0.0174
     17 C         142.9801  135.1154  155.3104 C.3     1  UNL1        0.0576
     18 C         143.7239  134.3245  156.3454 C.3     1  UNL1        0.0173
     19 N         141.8895  138.6085  164.8653 N.am    1  UNL1       -0.2806
     20 C         141.6314  139.9404  165.5051 C.2     1  UNL1        0.2493
     21 O         141.5782  141.1797  164.6619 O.2     1  UNL1       -0.2698
     22 H         141.9245  137.7950  165.4188 H       1  UNL1        0.1552
     23 C         141.4265  140.0329  166.9882 C.ar    1  UNL1        0.0520
     24 C         142.5971  140.2794  167.8931 C.ar    1  UNL1        0.0338
     25 C         142.3923  140.3720  169.3762 C.ar    1  UNL1        0.1403
     26 F         143.5629  140.6185  170.2810 F       1  UNL1       -0.2042
     27 C         141.0168  140.2180  169.9543 C.ar    1  UNL1        0.0293
     28 C         139.8462  139.9715  169.0494 C.ar    1  UNL1       -0.0018
     29 C         140.0510  139.8789  167.5664 C.ar    1  UNL1       -0.0173
     30 C         138.8804  139.6324  166.6615 C.3     1  UNL1        0.0312
@<TRIPOS>BOND
     1     1     2    1
     2     2     3   ar
     3     3     4   ar
     4     4     8    1
     5     8     9    1
     6     9    10    1
     7    10    11    1
     8    11    13    1
     9    13    14    1
    10    14    15    1
    11    15    16    1
    12    16    17    1
    13    17    18    1
    14    11    12    1
    15     4     5   ar
    16     5     6   ar
    17     6     7   ar
    18     7    19    1
    19    19    20   am
    20    20    21    2
    21    20    23    1
    22    23    24   ar
    23    24    25   ar
    24    25    26    1
    25    25    27   ar
    26    27    28   ar
    27    28    29   ar
    28    29    30    1
    29     7     2   ar
    30    29    23   ar
    31    12     8    1
    32    17    13    1
    33    19    22    1
@<TRIPOS>MOLECULE
*****
 30 33 0 0 0
SMALL
GASTEIGER

@<TRIPOS>ATOM
      1 C         143.5095  138.2576  162.0741 C.3     1  UNL1        0.0324
      2 C         143.5167  139.5951  161.3951 C.ar    1  UNL1       -0.0071
      3 C         143.9598  139.7086  159.9666 C.ar    1  UNL1        0.0115
      4 C         143.9670  141.0461  159.2875 C.ar    1  UNL1        0.0476
      5 C         143.5311  142.2701  160.0370 C.ar    1  UNL1        0.0158
      6 C         143.0880  142.1566  161.4655 C.ar    1  UNL1        0.0156
      7 C         143.0808  140.8191  162.1446 C.ar    1  UNL1        0.0466
      8 N         144.4102  141.1595  157.8589 N.pl3   1  UNL1       -0.3061
      9 C         144.0996  140.1875  156.7596 C.3     1  UNL1        0.0923
     10 C         144.7391  140.6921  155.5002 C.3     1  UNL1        0.0391
     11 C         145.4451  141.9762  155.8211 C.3     1  UNL1        0.0790
     12 C         145.2418  142.2650  157.2789 C.3     1  UNL1        0.1067
     13 N         146.2185  142.8227  154.8541 N.3     1  UNL1       -0.2736
     14 C         145.6454  143.8663  153.9418 C.3     1  UNL1        0.0721
     15 C         146.7736  144.4628  153.1534 C.3     1  UNL1        0.0187
     16 C         148.0438  143.7878  153.5785 C.3     1  UNL1        0.0174
     17 C         147.7008  142.7742  154.6296 C.3     1  UNL1        0.0576
     18 C         148.6699  141.8706  155.3328 C.3     1  UNL1        0.0173
     19 N         142.6376  140.7057  163.5732 N.am    1  UNL1       -0.2806
     20 C         143.6228  140.9215  164.6834 C.2     1  UNL1        0.2493
     21 O         145.0512  141.2509  164.3652 O.2     1  UNL1       -0.2698
     22 H         141.7001  140.4895  163.7821 H       1  UNL1        0.1552
     23 C         143.1797  140.8081  166.1120 C.ar    1  UNL1        0.0520
     24 C         142.8758  142.0455  166.9035 C.ar    1  UNL1        0.0338
     25 C         142.4327  141.9321  168.3321 C.ar    1  UNL1        0.1403
     26 F         142.1288  143.1695  169.1235 F       1  UNL1       -0.2042
     27 C         142.2934  140.5813  168.9691 C.ar    1  UNL1        0.0293
     28 C         142.5973  139.3439  168.1776 C.ar    1  UNL1       -0.0018
     29 C         143.0404  139.4573  166.7491 C.ar    1  UNL1       -0.0173
     30 C         143.3443  138.2199  165.9576 C.3     1  UNL1        0.0312
@<TRIPOS>BOND
     1     1     2    1
     2     2     3   ar
     3     3     4   ar
     4     4     8    1
     5     8     9    1
     6     9    10    1
     7    10    11    1
     8    11    13    1
     9    13    14    1
    10    14    15    1
    11    15    16    1
    12    16    17    1
    13    17    18    1
    14    11    12    1
    15     4     5   ar
    16     5     6   ar
    17     6     7   ar
    18     7    19    1
    19    19    20   am
    20    20    21    2
    21    20    23    1
    22    23    24   ar
    23    24    25   ar
    24    25    26    1
    25    25    27   ar
    26    27    28   ar
    27    28    29   ar
    28    29    30    1
    29     7     2   ar
    30    29    23   ar
    31    12     8    1
    32    17    13    1
    33    19    22    1
@<TRIPOS>MOLECULE
*****
 30 33 0 0 0
SMALL
GASTEIGER

@<TRIPOS>ATOM
      1 C         139.6911  141.5007  159.6763 C.3     1  UNL1        0.0324
      2 C         139.8226  142.4680  160.8151 C.ar    1  UNL1       -0.0071
      3 C         139.9717  141.9590  162.2182 C.ar    1  UNL1        0.0115
      4 C         140.1033  142.9263  163.3570 C.ar    1  UNL1        0.0476
      5 C         140.0857  144.4027  163.0928 C.ar    1  UNL1        0.0158
      6 C         139.9366  144.9118  161.6898 C.ar    1  UNL1        0.0156
      7 C         139.8050  143.9444  160.5510 C.ar    1  UNL1        0.0466
      8 N         140.2524  142.4171  164.7601 N.pl3   1  UNL1       -0.3061
      9 C         139.3938  141.3770  165.4165 C.3     1  UNL1        0.0923
     10 C         139.8971  141.1758  166.8152 C.3     1  UNL1        0.0391
     11 C         141.0667  142.0916  167.0232 C.3     1  UNL1        0.0790
     12 C         141.2863  142.8588  165.7531 C.3     1  UNL1        0.1067
     13 N         141.8749  142.2180  168.2805 N.3     1  UNL1       -0.2736
     14 C         143.1879  141.5471  168.5558 C.3     1  UNL1        0.0721
     15 C         143.6364  141.9519  169.9287 C.3     1  UNL1        0.0187
     16 C         142.6006  142.8731  170.5019 C.3     1  UNL1        0.0174
     17 C         141.5119  143.0375  169.4833 C.3     1  UNL1        0.0576
     18 C         140.2770  143.8745  169.6398 C.3     1  UNL1        0.0173
     19 N         139.6559  144.4536  159.1479 N.am    1  UNL1       -0.2806
     20 C         140.7834  145.1981  158.4964 C.2     1  UNL1        0.2493
     21 O         142.0600  145.4335  159.2479 O.2     1  UNL1       -0.2698
     22 H         138.8180  144.2991  158.6546 H       1  UNL1        0.1552
     23 C         140.6343  145.7072  157.0933 C.ar    1  UNL1        0.0520
     24 C         139.6532  146.8014  156.7928 C.ar    1  UNL1        0.0338
     25 C         139.5040  147.3106  155.3898 C.ar    1  UNL1        0.1403
     26 F         138.5229  148.4047  155.0893 F       1  UNL1       -0.2042
     27 C         140.3360  146.7256  154.2873 C.ar    1  UNL1        0.0293
     28 C         141.3170  145.6314  154.5877 C.ar    1  UNL1       -0.0018
     29 C         141.4662  145.1223  155.9907 C.ar    1  UNL1       -0.0173
     30 C         142.4473  144.0281  156.2912 C.3     1  UNL1        0.0312
@<TRIPOS>BOND
     1     1     2    1
     2     2     3   ar
     3     3     4   ar
     4     4     8    1
     5     8     9    1
     6     9    10    1
     7    10    11    1
     8    11    13    1
     9    13    14    1
    10    14    15    1
    11    15    16    1
    12    16    17    1
    13    17    18    1
    14    11    12    1
    15     4     5   ar
    16     5     6   ar
    17     6     7   ar
    18     7    19    1
    19    19    20   am
    20    20    21    2
    21    20    23    1
    22    23    24   ar
    23    24    25   ar
    24    25    26    1
    25    25    27   ar
    26    27    28   ar
    27    28    29   ar
    28    29    30    1
    29     7     2   ar
    30    29    23   ar
    31    12     8    1
    32    17    13    1
    33    19    22    1
@<TRIPOS>MOLECULE
*****
 30 33 0 0 0
SMALL
GASTEIGER

@<TRIPOS>ATOM
      1 C         138.9766  137.7725  164.0728 C.3     1  UNL1        0.0324
      2 C         140.0925  138.2265  163.1793 C.ar    1  UNL1       -0.0071
      3 C         139.9596  138.1009  161.6905 C.ar    1  UNL1        0.0115
      4 C         141.0756  138.5549  160.7969 C.ar    1  UNL1        0.0476
      5 C         142.3245  139.1345  161.3921 C.ar    1  UNL1        0.0158
      6 C         142.4574  139.2601  162.8809 C.ar    1  UNL1        0.0156
      7 C         141.3414  138.8061  163.7745 C.ar    1  UNL1        0.0466
      8 N         140.9427  138.4292  159.3081 N.pl3   1  UNL1       -0.3061
      9 C         142.0645  138.2012  158.3388 C.3     1  UNL1        0.0923
     10 C         141.4797  138.1406  156.9589 C.3     1  UNL1        0.0391
     11 C         139.9964  138.3312  157.0752 C.3     1  UNL1        0.0790
     12 C         139.6645  138.5096  158.5271 C.3     1  UNL1        0.1067
     13 N         139.0169  138.3416  155.9392 N.3     1  UNL1       -0.2736
     14 C         138.6683  137.1736  155.0651 C.3     1  UNL1        0.0721
     15 C         137.6501  137.6319  154.0635 C.3     1  UNL1        0.0187
     16 C         137.3695  139.0832  154.3186 C.3     1  UNL1        0.0174
     17 C         138.2143  139.5218  155.4778 C.3     1  UNL1        0.0576
     18 C         138.2502  140.8989  156.0715 C.3     1  UNL1        0.0173
     19 N         141.4744  138.9317  165.2633 N.am    1  UNL1       -0.2806
     20 C         141.1746  140.2388  165.9354 C.2     1  UNL1        0.2493
     21 O         140.7419  141.4202  165.1188 O.2     1  UNL1       -0.2698
     22 H         141.7584  138.1563  165.7994 H       1  UNL1        0.1552
     23 C         141.3075  140.3644  167.4243 C.ar    1  UNL1        0.0520
     24 C         142.6002  140.8313  168.0251 C.ar    1  UNL1        0.0338
     25 C         142.7332  140.9569  169.5139 C.ar    1  UNL1        0.1403
     26 F         144.0259  141.4238  170.1146 F       1  UNL1       -0.2042
     27 C         141.5735  140.6157  170.4018 C.ar    1  UNL1        0.0293
     28 C         140.2808  140.1488  169.8011 C.ar    1  UNL1       -0.0018
     29 C         140.1478  140.0232  168.3123 C.ar    1  UNL1       -0.0173
     30 C         138.8551  139.5563  167.7115 C.3     1  UNL1        0.0312
@<TRIPOS>BOND
     1     1     2    1
     2     2     3   ar
     3     3     4   ar
     4     4     8    1
     5     8     9    1
     6     9    10    1
     7    10    11    1
     8    11    13    1
     9    13    14    1
    10    14    15    1
    11    15    16    1
    12    16    17    1
    13    17    18    1
    14    11    12    1
    15     4     5   ar
    16     5     6   ar
    17     6     7   ar
    18     7    19    1
    19    19    20   am
    20    20    21    2
    21    20    23    1
    22    23    24   ar
    23    24    25   ar
    24    25    26    1
    25    25    27   ar
    26    27    28   ar
    27    28    29   ar
    28    29    30    1
    29     7     2   ar
    30    29    23   ar
    31    12     8    1
    32    17    13    1
    33    19    22    1
