@<TRIPOS>MOLECULE
*****
 32 35 0 0 0
SMALL
GASTEIGER

@<TRIPOS>ATOM
      1 C         140.1092  138.2690  161.1457 C.3     1  UNL1        0.1166
      2 N         138.6490  138.4317  161.4474 N.3     1  UNL1       -0.3162
      3 C         141.5779  138.0541  161.3622 C.3     1  UNL1        0.0739
      4 C         142.5153  138.0460  160.1913 C.3     1  UNL1        0.2039
      5 N         141.9841  138.2527  158.8037 N.pl3   1  UNL1       -0.1931
      6 C         140.5154  138.4676  158.5872 C.3     1  UNL1        0.2039
      7 C         139.5780  138.4757  159.7582 C.3     1  UNL1        0.0739
      8 H         138.4987  138.3524  162.4532 H       1  UNL1        0.1192
      9 H         138.1193  137.7049  160.9661 H       1  UNL1        0.1192
     10 C         142.9215  138.2446  157.6328 C.2     1  UNL1        0.3205
     11 N         143.6465  139.4987  157.2437 N.2     1  UNL1        0.0097
     12 C         144.5839  139.4906  156.0728 C.2     1  UNL1        0.4717
     13 N         144.7964  138.2283  155.2909 N.2     1  UNL1        0.0158
     14 C         144.0714  136.9741  155.6799 C.2     1  UNL1        0.3714
     15 N         144.0797  135.5898  155.1023 N.2     1  UNL1       -0.0339
     16 C         143.1474  134.7424  155.9163 C.2     1  UNL1        0.2323
     17 C         142.5629  135.6029  156.9970 C.2     1  UNL1        0.0486
     18 C         143.1340  136.9822  156.8509 C.3     1  UNL1        0.2428
     19 N         139.3624  139.0737  163.5003 N.am    1  UNL1       -0.3012
     20 C         140.1333  138.1187  162.6379 C.2     1  UNL1        0.2352
     21 O         140.9284  137.0137  163.2678 O.2     1  UNL1       -0.2737
     22 H         138.8405  139.7990  163.0869 H       1  UNL1        0.1497
     23 C         139.3865  138.9235  164.9926 C.3     1  UNL1        0.0941
     24 C         140.3262  139.7545  165.8150 C.ar    1  UNL1       -0.0045
     25 C         139.9435  141.1500  166.2102 C.ar    1  UNL1       -0.0018
     26 C         140.8832  141.9811  167.0325 C.ar    1  UNL1        0.0111
     27 C         142.2057  141.4166  167.4596 C.ar    1  UNL1        0.0577
     28 CL        143.1454  142.2477  168.2820 Cl      1  UNL1       -0.0822
     29 C         142.5885  140.0212  167.0645 C.ar    1  UNL1        0.0111
     30 C         141.6487  139.1900  166.2421 C.ar    1  UNL1       -0.0018
     31 C         137.7058  138.3463  166.8880 C.3     1  UNL1        0.0021
     32 C         138.4708  137.9423  165.6625 C.3     1  UNL1        0.0241
@<TRIPOS>BOND
     1    31    32    1
     2    32    23    1
     3    23    19    1
     4    19    20   am
     5    20    21    2
     6    20     1    1
     7     1     2    1
     8     1     3    1
     9     3     4    1
    10     4     5    1
    11     5    10    1
    12    10    11    2
    13    11    12    1
    14    12    13    2
    15    13    14    1
    16    14    15    2
    17    15    16    1
    18    16    17    2
    19    17    18    1
    20     5     6    1
    21     6     7    1
    22    23    24    1
    23    24    25   ar
    24    25    26   ar
    25    26    27   ar
    26    27    28    1
    27    27    29   ar
    28    29    30   ar
    29     7     1    1
    30    30    24   ar
    31    18    10    1
    32    18    14    1
    33    19    22    1
    34     2     8    1
    35     2     9    1
@<TRIPOS>MOLECULE
*****
 32 35 0 0 0
SMALL
GASTEIGER

@<TRIPOS>ATOM
      1 C         141.6640  144.8434  162.7130 C.3     1  UNL1        0.1166
      2 N         141.3091  145.4386  164.0433 N.3     1  UNL1       -0.3162
      3 C         142.3741  144.0147  161.6839 C.3     1  UNL1        0.0739
      4 C         141.9382  144.0648  160.2496 C.3     1  UNL1        0.2039
      5 N         140.7920  144.9436  159.8443 N.pl3   1  UNL1       -0.1931
      6 C         140.0819  145.7723  160.8734 C.3     1  UNL1        0.2039
      7 C         140.5179  145.7221  162.3078 C.3     1  UNL1        0.0739
      8 H         141.9346  145.0687  164.7590 H       1  UNL1        0.1192
      9 H         140.3456  145.1988  164.2769 H       1  UNL1        0.1192
     10 C         140.3561  144.9938  158.4099 C.2     1  UNL1        0.3205
     11 N         140.8550  146.0869  157.5121 N.2     1  UNL1        0.0097
     12 C         140.4191  146.1371  156.0778 C.2     1  UNL1        0.4717
     13 N         139.4842  145.0940  155.5411 N.2     1  UNL1        0.0158
     14 C         138.9852  144.0008  156.4389 C.2     1  UNL1        0.3714
     15 N         138.0632  142.8433  156.1939 N.2     1  UNL1       -0.0339
     16 C         137.9293  142.0778  157.4769 C.2     1  UNL1        0.2323
     17 C         138.7686  142.7622  158.5148 C.2     1  UNL1        0.0486
     18 C         139.4212  143.9507  157.8733 C.3     1  UNL1        0.2428
     19 N         142.7088  142.6756  163.6922 N.am    1  UNL1       -0.3012
     20 C         142.6868  144.1713  163.5802 C.2     1  UNL1        0.2352
     21 O         143.6876  144.9947  164.3355 O.2     1  UNL1       -0.2737
     22 H         142.0520  142.1351  163.1965 H       1  UNL1        0.1497
     23 C         143.7317  142.0034  164.5594 C.3     1  UNL1        0.0941
     24 C         143.3185  141.3757  165.8575 C.ar    1  UNL1       -0.0045
     25 C         143.1109  142.2315  167.0719 C.ar    1  UNL1       -0.0018
     26 C         142.6977  141.6039  168.3700 C.ar    1  UNL1        0.0111
     27 C         142.4920  140.1204  168.4538 C.ar    1  UNL1        0.0577
     28 CL        142.0787  139.4927  169.7521 Cl      1  UNL1       -0.0822
     29 C         142.6995  139.2646  167.2396 C.ar    1  UNL1        0.0111
     30 C         143.1128  139.8923  165.9413 C.ar    1  UNL1       -0.0018
     31 C         145.5122  141.9308  162.6687 C.3     1  UNL1        0.0021
     32 C         145.1678  141.9590  164.1284 C.3     1  UNL1        0.0241
@<TRIPOS>BOND
     1    31    32    1
     2    32    23    1
     3    23    19    1
     4    19    20   am
     5    20    21    2
     6    20     1    1
     7     1     2    1
     8     1     3    1
     9     3     4    1
    10     4     5    1
    11     5    10    1
    12    10    11    2
    13    11    12    1
    14    12    13    2
    15    13    14    1
    16    14    15    2
    17    15    16    1
    18    16    17    2
    19    17    18    1
    20     5     6    1
    21     6     7    1
    22    23    24    1
    23    24    25   ar
    24    25    26   ar
    25    26    27   ar
    26    27    28    1
    27    27    29   ar
    28    29    30   ar
    29     7     1    1
    30    30    24   ar
    31    18    10    1
    32    18    14    1
    33    19    22    1
    34     2     8    1
    35     2     9    1
@<TRIPOS>MOLECULE
*****
 32 35 0 0 0
SMALL
GASTEIGER

@<TRIPOS>ATOM
      1 C         140.1201  144.4330  163.3827 C.3     1  UNL1        0.1166
      2 N         139.5021  145.2093  164.5076 N.3     1  UNL1       -0.3162
      3 C         140.8178  143.3247  162.6513 C.3     1  UNL1        0.0739
      4 C         141.0712  143.4417  161.1776 C.3     1  UNL1        0.2039
      5 N         140.6267  144.6670  160.4351 N.pl3   1  UNL1       -0.1931
      6 C         139.9290  145.7753  161.1664 C.3     1  UNL1        0.2039
      7 C         139.6757  145.6582  162.6403 C.3     1  UNL1        0.0739
      8 H         139.5815  144.6754  165.3730 H       1  UNL1        0.1192
      9 H         138.5177  145.3799  164.3024 H       1  UNL1        0.1192
     10 C         140.8801  144.7840  158.9612 C.2     1  UNL1        0.3205
     11 N         141.9510  145.7043  158.4551 N.2     1  UNL1        0.0097
     12 C         142.2044  145.8213  156.9813 C.2     1  UNL1        0.4717
     13 N         141.3868  145.0180  156.0136 N.2     1  UNL1        0.0158
     14 C         140.3159  144.0977  156.5198 C.2     1  UNL1        0.3714
     15 N         139.3573  143.1875  155.8109 N.2     1  UNL1       -0.0339
     16 C         138.5115  142.5079  156.8467 C.2     1  UNL1        0.2323
     17 C         138.9473  142.9982  158.1956 C.2     1  UNL1        0.0486
     18 C         140.0626  143.9807  157.9936 C.3     1  UNL1        0.2428
     19 N         141.2234  142.2743  164.3166 N.am    1  UNL1       -0.3012
     20 C         140.3499  143.4773  164.5158 C.2     1  UNL1        0.2352
     21 O         139.7062  143.7246  165.8479 O.2     1  UNL1       -0.2737
     22 H         141.6459  142.1120  163.4423 H       1  UNL1        0.1497
     23 C         141.4533  141.3185  165.4497 C.3     1  UNL1        0.0941
     24 C         140.3366  140.4377  165.9261 C.ar    1  UNL1       -0.0045
     25 C         139.9334  140.4531  167.3708 C.ar    1  UNL1       -0.0018
     26 C         138.8167  139.5723  167.8473 C.ar    1  UNL1        0.0111
     27 C         138.1032  138.6760  166.8790 C.ar    1  UNL1        0.0577
     28 CL        136.9864  137.7951  167.3555 Cl      1  UNL1       -0.0822
     29 C         138.5064  138.6605  165.4343 C.ar    1  UNL1        0.0111
     30 C         139.6231  139.5413  164.9578 C.ar    1  UNL1       -0.0018
     31 C         143.4066  142.4728  166.7155 C.3     1  UNL1        0.0021
     32 C         142.8000  141.2437  166.1062 C.3     1  UNL1        0.0241
@<TRIPOS>BOND
     1    31    32    1
     2    32    23    1
     3    23    19    1
     4    19    20   am
     5    20    21    2
     6    20     1    1
     7     1     2    1
     8     1     3    1
     9     3     4    1
    10     4     5    1
    11     5    10    1
    12    10    11    2
    13    11    12    1
    14    12    13    2
    15    13    14    1
    16    14    15    2
    17    15    16    1
    18    16    17    2
    19    17    18    1
    20     5     6    1
    21     6     7    1
    22    23    24    1
    23    24    25   ar
    24    25    26   ar
    25    26    27   ar
    26    27    28    1
    27    27    29   ar
    28    29    30   ar
    29     7     1    1
    30    30    24   ar
    31    18    10    1
    32    18    14    1
    33    19    22    1
    34     2     8    1
    35     2     9    1
@<TRIPOS>MOLECULE
*****
 32 35 0 0 0
SMALL
GASTEIGER

@<TRIPOS>ATOM
      1 C         138.6091  141.0474  162.9521 C.3     1  UNL1        0.1166
      2 N         137.1944  140.6816  163.2905 N.3     1  UNL1       -0.3162
      3 C         140.1063  141.1051  163.0254 C.3     1  UNL1        0.0739
      4 C         140.8749  141.9231  162.0306 C.3     1  UNL1        0.2039
      5 N         140.1465  142.6836  160.9622 N.pl3   1  UNL1       -0.1931
      6 C         138.6494  142.6260  160.8889 C.3     1  UNL1        0.2039
      7 C         137.8808  141.8079  161.8838 C.3     1  UNL1        0.0739
      8 H         137.1879  140.0623  164.1010 H       1  UNL1        0.1192
      9 H         136.7667  140.2062  162.4959 H       1  UNL1        0.1192
     10 C         140.9153  143.5016  159.9673 C.2     1  UNL1        0.3205
     11 N         140.4938  144.9099  159.6688 N.2     1  UNL1        0.0097
     12 C         141.2624  145.7279  158.6740 C.2     1  UNL1        0.4717
     13 N         142.4528  145.1377  157.9775 N.2     1  UNL1        0.0158
     14 C         142.8743  143.7295  158.2761 C.2     1  UNL1        0.3714
     15 N         143.9969  142.8850  157.7502 N.2     1  UNL1       -0.0339
     16 C         143.9219  141.5450  158.4200 C.2     1  UNL1        0.2323
     17 C         142.7530  141.5613  159.3600 C.2     1  UNL1        0.0486
     18 C         142.1055  142.9114  159.2710 C.3     1  UNL1        0.2428
     19 N         138.2774  140.5285  165.4760 N.am    1  UNL1       -0.3012
     20 C         138.8462  140.1599  164.1379 C.2     1  UNL1        0.2352
     21 O         139.6521  138.9040  163.9856 O.2     1  UNL1       -0.2737
     22 H         137.7484  141.3528  165.5760 H       1  UNL1        0.1497
     23 C         138.5144  139.6410  166.6619 C.3     1  UNL1        0.0941
     24 C         139.6908  139.8869  167.5595 C.ar    1  UNL1       -0.0045
     25 C         139.4738  140.2240  169.0049 C.ar    1  UNL1       -0.0018
     26 C         140.6502  140.4700  169.9025 C.ar    1  UNL1        0.0111
     27 C         142.0436  140.3788  169.3545 C.ar    1  UNL1        0.0577
     28 CL        143.2200  140.6247  170.2522 Cl      1  UNL1       -0.0822
     29 C         142.2606  140.0417  167.9091 C.ar    1  UNL1        0.0111
     30 C         141.0842  139.7958  167.0115 C.ar    1  UNL1       -0.0018
     31 C         137.8683  137.1364  166.4173 C.3     1  UNL1        0.0021
     32 C         137.5751  138.5076  166.9502 C.3     1  UNL1        0.0241
@<TRIPOS>BOND
     1    31    32    1
     2    32    23    1
     3    23    19    1
     4    19    20   am
     5    20    21    2
     6    20     1    1
     7     1     2    1
     8     1     3    1
     9     3     4    1
    10     4     5    1
    11     5    10    1
    12    10    11    2
    13    11    12    1
    14    12    13    2
    15    13    14    1
    16    14    15    2
    17    15    16    1
    18    16    17    2
    19    17    18    1
    20     5     6    1
    21     6     7    1
    22    23    24    1
    23    24    25   ar
    24    25    26   ar
    25    26    27   ar
    26    27    28    1
    27    27    29   ar
    28    29    30   ar
    29     7     1    1
    30    30    24   ar
    31    18    10    1
    32    18    14    1
    33    19    22    1
    34     2     8    1
    35     2     9    1
@<TRIPOS>MOLECULE
*****
 32 35 0 0 0
SMALL
GASTEIGER

@<TRIPOS>ATOM
      1 C         140.7363  138.1824  161.7494 C.3     1  UNL1        0.1166
      2 N         139.4555  138.1737  162.5300 N.3     1  UNL1       -0.3162
      3 C         142.2065  138.1577  161.4529 C.3     1  UNL1        0.0739
      4 C         142.6866  138.2263  160.0335 C.3     1  UNL1        0.2039
      5 N         141.6965  138.3197  158.9105 N.pl3   1  UNL1       -0.1931
      6 C         140.2263  138.3444  159.2070 C.3     1  UNL1        0.2039
      7 C         139.7462  138.2758  160.6264 C.3     1  UNL1        0.0739
      8 H         139.6649  138.1100  163.5262 H       1  UNL1        0.1192
      9 H         138.8916  137.3715  162.2491 H       1  UNL1        0.1192
     10 C         142.1767  138.3883  157.4911 C.2     1  UNL1        0.3205
     11 N         142.0619  139.6708  156.7217 N.2     1  UNL1        0.0097
     12 C         142.5421  139.7395  155.3024 C.2     1  UNL1        0.4717
     13 N         143.1370  138.5256  154.6522 N.2     1  UNL1        0.0158
     14 C         143.2517  137.2430  155.4216 C.2     1  UNL1        0.3714
     15 N         143.7898  135.8935  155.0485 N.2     1  UNL1       -0.0339
     16 C         143.6422  134.9908  156.2373 C.2     1  UNL1        0.2323
     17 C         143.0129  135.7824  157.3452 C.2     1  UNL1        0.0486
     18 C         142.7716  137.1744  156.8411 C.3     1  UNL1        0.2428
     19 N         141.8922  139.2914  163.7948 N.am    1  UNL1       -0.3012
     20 C         141.2816  138.0861  163.1434 C.2     1  UNL1        0.2352
     21 O         141.2163  136.7845  163.8861 O.2     1  UNL1       -0.2737
     22 H         141.9351  140.1457  163.3073 H       1  UNL1        0.1497
     23 C         142.4376  139.1951  165.1889 C.3     1  UNL1        0.0941
     24 C         141.5516  139.4896  166.3628 C.ar    1  UNL1       -0.0045
     25 C         142.1551  139.7529  167.7106 C.ar    1  UNL1       -0.0018
     26 C         141.2691  140.0475  168.8845 C.ar    1  UNL1        0.0111
     27 C         139.7795  140.0786  168.7107 C.ar    1  UNL1        0.0577
     28 CL        138.8935  140.3732  169.8847 Cl      1  UNL1       -0.0822
     29 C         139.1759  139.8153  167.3630 C.ar    1  UNL1        0.0111
     30 C         140.0620  139.5208  166.1890 C.ar    1  UNL1       -0.0018
     31 C         144.9334  139.2980  164.4743 C.3     1  UNL1        0.0021
     32 C         143.8690  138.8043  165.4089 C.3     1  UNL1        0.0241
@<TRIPOS>BOND
     1    31    32    1
     2    32    23    1
     3    23    19    1
     4    19    20   am
     5    20    21    2
     6    20     1    1
     7     1     2    1
     8     1     3    1
     9     3     4    1
    10     4     5    1
    11     5    10    1
    12    10    11    2
    13    11    12    1
    14    12    13    2
    15    13    14    1
    16    14    15    2
    17    15    16    1
    18    16    17    2
    19    17    18    1
    20     5     6    1
    21     6     7    1
    22    23    24    1
    23    24    25   ar
    24    25    26   ar
    25    26    27   ar
    26    27    28    1
    27    27    29   ar
    28    29    30   ar
    29     7     1    1
    30    30    24   ar
    31    18    10    1
    32    18    14    1
    33    19    22    1
    34     2     8    1
    35     2     9    1
@<TRIPOS>MOLECULE
*****
 32 35 0 0 0
SMALL
GASTEIGER

@<TRIPOS>ATOM
      1 C         140.0590  138.3693  162.4648 C.3     1  UNL1        0.1166
      2 N         140.9983  137.2367  162.7558 N.3     1  UNL1       -0.3162
      3 C         139.0582  139.4638  162.6895 C.3     1  UNL1        0.0739
      4 C         138.5605  140.2747  161.5300 C.3     1  UNL1        0.2039
      5 N         139.0636  139.9912  160.1455 N.pl3   1  UNL1       -0.1931
      6 C         140.0643  138.8967  159.9207 C.3     1  UNL1        0.2039
      7 C         140.5620  138.0858  161.0804 C.3     1  UNL1        0.0739
      8 H         140.9900  137.0365  163.7559 H       1  UNL1        0.1192
      9 H         141.9423  137.4955  162.4688 H       1  UNL1        0.1192
     10 C         138.5658  140.8022  158.9860 C.2     1  UNL1        0.3205
     11 N         137.4301  140.2943  158.1481 N.2     1  UNL1        0.0097
     12 C         136.9323  141.1052  156.9886 C.2     1  UNL1        0.4717
     13 N         137.5703  142.4241  156.6669 N.2     1  UNL1        0.0158
     14 C         138.7061  142.9320  157.5047 C.2     1  UNL1        0.3714
     15 N         139.5262  144.1857  157.4298 N.2     1  UNL1       -0.0339
     16 C         140.5309  144.1495  158.5431 C.2     1  UNL1        0.2323
     17 C         140.3316  142.8735  159.3060 C.2     1  UNL1        0.0486
     18 C         139.2038  142.1210  158.6643 C.3     1  UNL1        0.2428
     19 N         139.2151  139.3677  164.7099 N.am    1  UNL1       -0.3012
     20 C         139.8822  138.2595  163.9502 C.2     1  UNL1        0.2352
     21 O         140.3723  137.0418  164.6760 O.2     1  UNL1       -0.2737
     22 H         138.8935  140.1670  164.2336 H       1  UNL1        0.1497
     23 C         139.0383  139.2580  166.1954 C.3     1  UNL1        0.0941
     24 C         140.1158  139.7471  167.1172 C.ar    1  UNL1       -0.0045
     25 C         139.7730  140.1660  168.5161 C.ar    1  UNL1       -0.0018
     26 C         140.8506  140.6551  169.4379 C.ar    1  UNL1        0.0111
     27 C         142.2709  140.7253  168.9606 C.ar    1  UNL1        0.0577
     28 CL        143.3485  141.2145  169.8825 Cl      1  UNL1       -0.0822
     29 C         142.6137  140.3064  167.5618 C.ar    1  UNL1        0.0111
     30 C         141.5361  139.8173  166.6399 C.ar    1  UNL1       -0.0018
     31 C         137.5808  137.1733  166.7249 C.3     1  UNL1        0.0021
     32 C         137.7838  138.6592  166.7591 C.3     1  UNL1        0.0241
@<TRIPOS>BOND
     1    31    32    1
     2    32    23    1
     3    23    19    1
     4    19    20   am
     5    20    21    2
     6    20     1    1
     7     1     2    1
     8     1     3    1
     9     3     4    1
    10     4     5    1
    11     5    10    1
    12    10    11    2
    13    11    12    1
    14    12    13    2
    15    13    14    1
    16    14    15    2
    17    15    16    1
    18    16    17    2
    19    17    18    1
    20     5     6    1
    21     6     7    1
    22    23    24    1
    23    24    25   ar
    24    25    26   ar
    25    26    27   ar
    26    27    28    1
    27    27    29   ar
    28    29    30   ar
    29     7     1    1
    30    30    24   ar
    31    18    10    1
    32    18    14    1
    33    19    22    1
    34     2     8    1
    35     2     9    1
@<TRIPOS>MOLECULE
*****
 32 35 0 0 0
SMALL
GASTEIGER

@<TRIPOS>ATOM
      1 C         139.9819  142.9351  163.4279 C.3     1  UNL1        0.1166
      2 N         139.5748  143.4458  164.7782 N.3     1  UNL1       -0.3162
      3 C         140.4047  141.9810  162.3504 C.3     1  UNL1        0.0739
      4 C         140.6409  142.4811  160.9562 C.3     1  UNL1        0.2039
      5 N         140.4543  143.9354  160.6393 N.pl3   1  UNL1       -0.1931
      6 C         140.0315  144.8895  161.7167 C.3     1  UNL1        0.2039
      7 C         139.7953  144.3893  163.1110 C.3     1  UNL1        0.0739
      8 H         139.5579  142.6725  165.4432 H       1  UNL1        0.1192
      9 H         138.6459  143.8628  164.7181 H       1  UNL1        0.1192
     10 C         140.6905  144.4355  159.2450 C.2     1  UNL1        0.3205
     11 N         141.7872  145.4234  158.9783 N.2     1  UNL1        0.0097
     12 C         142.0234  145.9235  157.5840 C.2     1  UNL1        0.4717
     13 N         141.1629  145.4357  156.4563 N.2     1  UNL1        0.0158
     14 C         140.0662  144.4477  156.7230 C.2     1  UNL1        0.3714
     15 N         139.0646  143.7919  155.8194 N.2     1  UNL1       -0.0339
     16 C         138.2093  142.8865  156.6552 C.2     1  UNL1        0.2323
     17 C         138.6823  142.9827  158.0755 C.2     1  UNL1        0.0486
     18 C         139.8300  143.9476  158.1173 C.3     1  UNL1        0.2428
     19 N         139.1410  141.4828  165.4112 N.am    1  UNL1       -0.3012
     20 C         140.0271  141.6582  164.2137 C.2     1  UNL1        0.2352
     21 O         140.9583  140.5567  163.8019 O.2     1  UNL1       -0.2737
     22 H         138.5298  142.2058  165.6815 H       1  UNL1        0.1497
     23 C         139.1862  140.2059  166.1971 C.3     1  UNL1        0.0941
     24 C         140.1514  140.0599  167.3359 C.ar    1  UNL1       -0.0045
     25 C         141.6012  139.7907  167.0605 C.ar    1  UNL1       -0.0018
     26 C         142.5664  139.6447  168.1994 C.ar    1  UNL1        0.0111
     27 C         142.0819  139.7679  169.6136 C.ar    1  UNL1        0.0577
     28 CL        143.0472  139.6218  170.7525 Cl      1  UNL1       -0.0822
     29 C         140.6322  140.0370  169.8890 C.ar    1  UNL1        0.0111
     30 C         139.6669  140.1831  168.7502 C.ar    1  UNL1       -0.0018
     31 C         138.8208  137.8147  165.2490 C.3     1  UNL1        0.0021
     32 C         138.2661  139.0751  165.8440 C.3     1  UNL1        0.0241
@<TRIPOS>BOND
     1    31    32    1
     2    32    23    1
     3    23    19    1
     4    19    20   am
     5    20    21    2
     6    20     1    1
     7     1     2    1
     8     1     3    1
     9     3     4    1
    10     4     5    1
    11     5    10    1
    12    10    11    2
    13    11    12    1
    14    12    13    2
    15    13    14    1
    16    14    15    2
    17    15    16    1
    18    16    17    2
    19    17    18    1
    20     5     6    1
    21     6     7    1
    22    23    24    1
    23    24    25   ar
    24    25    26   ar
    25    26    27   ar
    26    27    28    1
    27    27    29   ar
    28    29    30   ar
    29     7     1    1
    30    30    24   ar
    31    18    10    1
    32    18    14    1
    33    19    22    1
    34     2     8    1
    35     2     9    1
@<TRIPOS>MOLECULE
*****
 32 35 0 0 0
SMALL
GASTEIGER

@<TRIPOS>ATOM
      1 C         141.6615  144.6533  162.7390 C.3     1  UNL1        0.1166
      2 N         141.6785  145.6554  163.8550 N.3     1  UNL1       -0.3162
      3 C         142.0006  143.4335  161.9345 C.3     1  UNL1        0.0739
      4 C         141.3201  143.1886  160.6205 C.3     1  UNL1        0.2039
      5 N         140.3002  144.1635  160.1108 N.pl3   1  UNL1       -0.1931
      6 C         139.9610  145.3832  160.9152 C.3     1  UNL1        0.2039
      7 C         140.6417  145.6281  162.2293 C.3     1  UNL1        0.0739
      8 H         142.3481  145.3612  164.5659 H       1  UNL1        0.1192
      9 H         140.7486  145.7187  164.2693 H       1  UNL1        0.1192
     10 C         139.6196  143.9185  158.7967 C.2     1  UNL1        0.3205
     11 N         138.5360  142.8864  158.6942 N.2     1  UNL1        0.0097
     12 C         137.8554  142.6415  157.3803 C.2     1  UNL1        0.4717
     13 N         138.2585  143.4286  156.1686 N.2     1  UNL1        0.0158
     14 C         139.3421  144.4606  156.2710 C.2     1  UNL1        0.3714
     15 N         139.9481  145.3838  155.2559 N.2     1  UNL1       -0.0339
     16 C         141.0032  146.1993  155.9426 C.2     1  UNL1        0.2323
     17 C         141.0493  145.7802  157.3822 C.2     1  UNL1        0.0486
     18 C         140.0227  144.7056  157.5851 C.3     1  UNL1        0.2428
     19 N         142.6805  142.5434  163.8614 N.am    1  UNL1       -0.3012
     20 C         142.6872  144.0264  163.6362 C.2     1  UNL1        0.2352
     21 O         143.7195  144.8825  164.3081 O.2     1  UNL1       -0.2737
     22 H         142.0029  141.9816  163.4204 H       1  UNL1        0.1497
     23 C         143.7062  141.9165  164.7586 C.3     1  UNL1        0.0941
     24 C         143.3196  141.4563  166.1329 C.ar    1  UNL1       -0.0045
     25 C         143.3030  142.4309  167.2731 C.ar    1  UNL1       -0.0018
     26 C         142.9164  141.9707  168.6474 C.ar    1  UNL1        0.0111
     27 C         142.5464  140.5360  168.8815 C.ar    1  UNL1        0.0577
     28 CL        142.1598  140.0759  170.2559 Cl      1  UNL1       -0.0822
     29 C         142.5629  139.5615  167.7414 C.ar    1  UNL1        0.0111
     30 C         142.9495  140.0216  166.3670 C.ar    1  UNL1       -0.0018
     31 C         145.4270  141.8137  162.8148 C.3     1  UNL1        0.0021
     32 C         145.1184  141.7497  164.2814 C.3     1  UNL1        0.0241
@<TRIPOS>BOND
     1    31    32    1
     2    32    23    1
     3    23    19    1
     4    19    20   am
     5    20    21    2
     6    20     1    1
     7     1     2    1
     8     1     3    1
     9     3     4    1
    10     4     5    1
    11     5    10    1
    12    10    11    2
    13    11    12    1
    14    12    13    2
    15    13    14    1
    16    14    15    2
    17    15    16    1
    18    16    17    2
    19    17    18    1
    20     5     6    1
    21     6     7    1
    22    23    24    1
    23    24    25   ar
    24    25    26   ar
    25    26    27   ar
    26    27    28    1
    27    27    29   ar
    28    29    30   ar
    29     7     1    1
    30    30    24   ar
    31    18    10    1
    32    18    14    1
    33    19    22    1
    34     2     8    1
    35     2     9    1
@<TRIPOS>MOLECULE
*****
 32 35 0 0 0
SMALL
GASTEIGER

@<TRIPOS>ATOM
      1 C         139.6804  143.8759  163.7053 C.3     1  UNL1        0.1166
      2 N         139.0960  144.5886  164.8887 N.3     1  UNL1       -0.3162
      3 C         140.2899  142.7836  162.8775 C.3     1  UNL1        0.0739
      4 C         140.6240  143.0321  161.4365 C.3     1  UNL1        0.2039
      5 N         140.3485  144.3730  160.8232 N.pl3   1  UNL1       -0.1931
      6 C         139.7390  145.4654  161.6509 C.3     1  UNL1        0.2039
      7 C         139.4049  145.2168  163.0920 C.3     1  UNL1        0.0739
      8 H         139.0769  143.9577  165.6900 H       1  UNL1        0.1192
      9 H         138.1462  144.8890  164.6697 H       1  UNL1        0.1192
     10 C         140.6826  144.6215  159.3821 C.2     1  UNL1        0.3205
     11 N         141.8010  145.5537  159.0215 N.2     1  UNL1        0.0097
     12 C         142.1351  145.8023  157.5805 C.2     1  UNL1        0.4717
     13 N         141.3508  145.1185  156.5000 N.2     1  UNL1        0.0158
     14 C         140.2324  144.1863  156.8606 C.2     1  UNL1        0.3714
     15 N         139.2908  143.3759  156.0200 N.2     1  UNL1       -0.0339
     16 C         138.3748  142.6264  156.9416 C.2     1  UNL1        0.2323
     17 C         138.7502  142.9737  158.3517 C.2     1  UNL1        0.0486
     18 C         139.8983  143.9378  158.3017 C.3     1  UNL1        0.2428
     19 N         139.2988  141.3963  164.3800 N.am    1  UNL1       -0.3012
     20 C         139.7529  142.7825  164.7295 C.2     1  UNL1        0.2352
     21 O         140.2796  143.0752  166.1032 O.2     1  UNL1       -0.2737
     22 H         138.9531  141.2041  163.4784 H       1  UNL1        0.1497
     23 C         139.3713  140.3027  165.4042 C.3     1  UNL1        0.0941
     24 C         140.6873  139.6546  165.7174 C.ar    1  UNL1       -0.0045
     25 C         141.3428  139.8915  167.0457 C.ar    1  UNL1       -0.0018
     26 C         142.6587  139.2433  167.3589 C.ar    1  UNL1        0.0111
     27 C         143.3192  138.3582  166.3438 C.ar    1  UNL1        0.0577
     28 CL        144.6352  137.7100  166.6570 Cl      1  UNL1       -0.0822
     29 C         142.6637  138.1212  165.0156 C.ar    1  UNL1        0.0111
     30 C         141.3477  138.7694  164.7023 C.ar    1  UNL1       -0.0018
     31 C         137.9640  138.4197  166.5105 C.3     1  UNL1        0.0021
     32 C         138.1278  139.8574  166.1153 C.3     1  UNL1        0.0241
@<TRIPOS>BOND
     1    31    32    1
     2    32    23    1
     3    23    19    1
     4    19    20   am
     5    20    21    2
     6    20     1    1
     7     1     2    1
     8     1     3    1
     9     3     4    1
    10     4     5    1
    11     5    10    1
    12    10    11    2
    13    11    12    1
    14    12    13    2
    15    13    14    1
    16    14    15    2
    17    15    16    1
    18    16    17    2
    19    17    18    1
    20     5     6    1
    21     6     7    1
    22    23    24    1
    23    24    25   ar
    24    25    26   ar
    25    26    27   ar
    26    27    28    1
    27    27    29   ar
    28    29    30   ar
    29     7     1    1
    30    30    24   ar
    31    18    10    1
    32    18    14    1
    33    19    22    1
    34     2     8    1
    35     2     9    1
