@<TRIPOS>MOLECULE
*****
 25 28 0 0 0
SMALL
GASTEIGER

@<TRIPOS>ATOM
      1 N         139.5755  139.1333  171.7814 N.pl3   1  UNL1       -0.3375
      2 C         140.0450  139.7758  170.5098 C.ar    1  UNL1        0.1567
      3 N         139.2338  139.9554  169.2609 N.ar    1  UNL1       -0.2245
      4 C         140.0955  140.6421  168.2432 C.ar    1  UNL1        0.0889
      5 C         139.8302  141.0762  166.8321 C.ar    1  UNL1        0.0152
      6 C         140.9087  141.7551  166.0409 C.ar    1  UNL1       -0.0228
      7 C         142.2524  141.9999  166.6608 C.ar    1  UNL1       -0.0238
      8 C         142.5178  141.5659  168.0719 C.ar    1  UNL1        0.0036
      9 C         141.4393  140.8870  168.8631 C.ar    1  UNL1        0.0494
     10 S         141.4080  140.3516  170.2640 S.2     1  UNL1       -0.0520
     11 C         143.4574  142.6550  166.0532 C.3     1  UNL1        0.0475
     12 C         143.6160  143.2269  164.6755 C.3     1  UNL1        0.0984
     13 N         142.6090  143.2851  163.5655 N.am    1  UNL1       -0.2754
     14 C         143.0785  143.9276  162.2939 C.2     1  UNL1        0.2490
     15 O         144.4770  144.4610  162.1950 O.2     1  UNL1       -0.2699
     16 C         141.1946  142.7857  163.5586 C.3     1  UNL1        0.0984
     17 C         140.4379  142.1047  164.6603 C.3     1  UNL1        0.0476
     18 H         138.6576  138.7832  171.8463 H       1  UNL1        0.1442
     19 H         140.1852  139.0616  172.5510 H       1  UNL1        0.1442
     20 C         142.1495  144.0368  161.1213 C.ar    1  UNL1        0.0536
     21 C         142.1582  142.9802  160.0566 C.ar    1  UNL1        0.0045
     22 C         141.2292  143.0893  158.8840 C.ar    1  UNL1        0.0001
     23 C         140.2916  144.2551  158.7760 C.ar    1  UNL1        0.0000
     24 C         140.2829  145.3118  159.8406 C.ar    1  UNL1        0.0001
     25 C         141.2118  145.2027  161.0132 C.ar    1  UNL1        0.0045
@<TRIPOS>BOND
     1     1     2    1
     2     2     3   ar
     3     3     4   ar
     4     4     5   ar
     5     5     6   ar
     6     6     7   ar
     7     7     8   ar
     8     8     9   ar
     9     9    10   ar
    10     7    11    1
    11    11    12    1
    12    12    13    1
    13    13    14   am
    14    14    15    2
    15    14    20    1
    16    20    21   ar
    17    21    22   ar
    18    22    23   ar
    19    23    24   ar
    20    24    25   ar
    21    13    16    1
    22    16    17    1
    23    10     2   ar
    24    25    20   ar
    25     9     4   ar
    26    17     6    1
    27     1    18    1
    28     1    19    1
@<TRIPOS>MOLECULE
*****
 25 28 0 0 0
SMALL
GASTEIGER

@<TRIPOS>ATOM
      1 N         143.8494  139.5127  171.5102 N.pl3   1  UNL1       -0.3375
      2 C         143.1206  139.9892  170.2888 C.ar    1  UNL1        0.1567
      3 N         142.9483  139.2240  169.0103 N.ar    1  UNL1       -0.2245
      4 C         142.1574  140.0765  168.0629 C.ar    1  UNL1        0.0889
      5 C         141.6844  139.8431  166.6586 C.ar    1  UNL1        0.0152
      6 C         140.8950  140.9019  165.9473 C.ar    1  UNL1       -0.0228
      7 C         140.5786  142.1940  166.6403 C.ar    1  UNL1       -0.0238
      8 C         141.0515  142.4274  168.0445 C.ar    1  UNL1        0.0036
      9 C         141.8409  141.3686  168.7558 C.ar    1  UNL1        0.0494
     10 S         142.4363  141.3147  170.1316 S.2     1  UNL1       -0.0520
     11 C         139.8115  143.3723  166.1175 C.3     1  UNL1        0.0475
     12 C         139.1714  143.5493  164.7724 C.3     1  UNL1        0.0984
     13 N         139.1403  142.5919  163.6183 N.am    1  UNL1       -0.2754
     14 C         138.4115  143.0684  162.3969 C.2     1  UNL1        0.2490
     15 O         137.7731  144.4258  162.3863 O.2     1  UNL1       -0.2699
     16 C         139.7416  141.2209  163.5238 C.3     1  UNL1        0.0984
     17 C         140.5226  140.4688  164.5603 C.3     1  UNL1        0.0476
     18 H         144.2685  138.6218  171.5172 H       1  UNL1        0.1442
     19 H         143.9087  140.0908  172.3049 H       1  UNL1        0.1442
     20 C         138.3212  142.1877  161.1860 C.ar    1  UNL1        0.0536
     21 C         137.6895  140.8311  161.2907 C.ar    1  UNL1        0.0045
     22 C         137.5991  139.9504  160.0800 C.ar    1  UNL1        0.0001
     23 C         138.1404  140.4261  158.7644 C.ar    1  UNL1        0.0000
     24 C         138.7720  141.7827  158.6596 C.ar    1  UNL1        0.0001
     25 C         138.8624  142.6634  159.8704 C.ar    1  UNL1        0.0045
@<TRIPOS>BOND
     1     1     2    1
     2     2     3   ar
     3     3     4   ar
     4     4     5   ar
     5     5     6   ar
     6     6     7   ar
     7     7     8   ar
     8     8     9   ar
     9     9    10   ar
    10     7    11    1
    11    11    12    1
    12    12    13    1
    13    13    14   am
    14    14    15    2
    15    14    20    1
    16    20    21   ar
    17    21    22   ar
    18    22    23   ar
    19    23    24   ar
    20    24    25   ar
    21    13    16    1
    22    16    17    1
    23    10     2   ar
    24    25    20   ar
    25     9     4   ar
    26    17     6    1
    27     1    18    1
    28     1    19    1
@<TRIPOS>MOLECULE
*****
 25 28 0 0 0
SMALL
GASTEIGER

@<TRIPOS>ATOM
      1 N         143.6870  143.6268  157.2644 N.pl3   1  UNL1       -0.3375
      2 C         143.5594  143.1017  158.6637 C.ar    1  UNL1        0.1567
      3 N         142.8186  143.7614  159.7889 N.ar    1  UNL1       -0.2245
      4 C         142.9515  142.8921  161.0040 C.ar    1  UNL1        0.0889
      5 C         142.4295  143.0358  162.4029 C.ar    1  UNL1        0.0152
      6 C         142.7305  141.9825  163.4276 C.ar    1  UNL1       -0.0228
      7 C         143.5534  140.7856  163.0534 C.ar    1  UNL1       -0.0238
      8 C         144.0754  140.6418  161.6546 C.ar    1  UNL1        0.0036
      9 C         143.7745  141.6951  160.6298 C.ar    1  UNL1        0.0494
     10 S         144.1501  141.8247  159.1834 S.2     1  UNL1       -0.0520
     11 C         143.9667  139.6287  163.9142 C.3     1  UNL1        0.0475
     12 C         143.6591  139.3831  165.3617 C.3     1  UNL1        0.0984
     13 N         142.8624  140.2337  166.3058 N.am    1  UNL1       -0.2754
     14 C         142.7347  139.7086  167.7051 C.2     1  UNL1        0.2490
     15 O         143.3836  138.4094  168.0807 O.2     1  UNL1       -0.2699
     16 C         142.1763  141.5400  166.0358 C.3     1  UNL1        0.0984
     17 C         142.1176  142.3183  164.7549 C.3     1  UNL1        0.0476
     18 H         143.2611  144.4795  157.0178 H       1  UNL1        0.1442
     19 H         144.1967  143.1188  156.5925 H       1  UNL1        0.1442
     20 C         141.9582  140.4826  168.7288 C.ar    1  UNL1        0.0536
     21 C         140.4813  140.2633  168.8733 C.ar    1  UNL1        0.0045
     22 C         139.7048  141.0372  169.8970 C.ar    1  UNL1        0.0001
     23 C         140.4051  142.0306  170.7761 C.ar    1  UNL1        0.0000
     24 C         141.8819  142.2500  170.6316 C.ar    1  UNL1        0.0001
     25 C         142.6585  141.4760  169.6079 C.ar    1  UNL1        0.0045
@<TRIPOS>BOND
     1     1     2    1
     2     2     3   ar
     3     3     4   ar
     4     4     5   ar
     5     5     6   ar
     6     6     7   ar
     7     7     8   ar
     8     8     9   ar
     9     9    10   ar
    10     7    11    1
    11    11    12    1
    12    12    13    1
    13    13    14   am
    14    14    15    2
    15    14    20    1
    16    20    21   ar
    17    21    22   ar
    18    22    23   ar
    19    23    24   ar
    20    24    25   ar
    21    13    16    1
    22    16    17    1
    23    10     2   ar
    24    25    20   ar
    25     9     4   ar
    26    17     6    1
    27     1    18    1
    28     1    19    1
@<TRIPOS>MOLECULE
*****
 25 28 0 0 0
SMALL
GASTEIGER

@<TRIPOS>ATOM
      1 N         143.0343  138.5684  170.6650 N.pl3   1  UNL1       -0.3375
      2 C         142.5736  139.3640  169.4797 C.ar    1  UNL1        0.1567
      3 N         143.0060  139.1589  168.0581 N.ar    1  UNL1       -0.2245
      4 C         142.2992  140.1725  167.2079 C.ar    1  UNL1        0.0889
      5 C         142.3349  140.4458  165.7334 C.ar    1  UNL1        0.0152
      6 C         141.5012  141.5506  165.1550 C.ar    1  UNL1       -0.0228
      7 C         140.6320  142.3821  166.0511 C.ar    1  UNL1       -0.0238
      8 C         140.5963  142.1089  167.5255 C.ar    1  UNL1        0.0036
      9 C         141.4300  141.0041  168.1040 C.ar    1  UNL1        0.0494
     10 S         141.5996  140.5043  169.5080 S.2     1  UNL1       -0.0520
     11 C         139.7298  143.5226  165.6832 C.3     1  UNL1        0.0475
     12 C         139.4740  144.1132  164.3282 C.3     1  UNL1        0.0984
     13 N         140.0573  143.7092  163.0067 N.am    1  UNL1       -0.2754
     14 C         139.5966  144.5049  161.8215 C.2     1  UNL1        0.2490
     15 O         138.6134  145.6228  162.0049 O.2     1  UNL1       -0.2699
     16 C         141.0404  142.6149  162.7135 C.3     1  UNL1        0.0984
     17 C         141.6830  141.6542  163.6696 C.3     1  UNL1        0.0476
     18 H         143.6796  137.8346  170.5446 H       1  UNL1        0.1442
     19 H         142.6914  138.7799  171.5633 H       1  UNL1        0.1442
     20 C         140.1190  144.1826  160.4528 C.ar    1  UNL1        0.0536
     21 C         139.4096  143.1750  159.5973 C.ar    1  UNL1        0.0045
     22 C         139.9320  142.8527  158.2287 C.ar    1  UNL1        0.0001
     23 C         141.1637  143.5379  157.7154 C.ar    1  UNL1        0.0000
     24 C         141.8730  144.5455  158.5709 C.ar    1  UNL1        0.0001
     25 C         141.3507  144.8678  159.9395 C.ar    1  UNL1        0.0045
@<TRIPOS>BOND
     1     1     2    1
     2     2     3   ar
     3     3     4   ar
     4     4     5   ar
     5     5     6   ar
     6     6     7   ar
     7     7     8   ar
     8     8     9   ar
     9     9    10   ar
    10     7    11    1
    11    11    12    1
    12    12    13    1
    13    13    14   am
    14    14    15    2
    15    14    20    1
    16    20    21   ar
    17    21    22   ar
    18    22    23   ar
    19    23    24   ar
    20    24    25   ar
    21    13    16    1
    22    16    17    1
    23    10     2   ar
    24    25    20   ar
    25     9     4   ar
    26    17     6    1
    27     1    18    1
    28     1    19    1
@<TRIPOS>MOLECULE
*****
 25 28 0 0 0
SMALL
GASTEIGER

@<TRIPOS>ATOM
      1 N         143.3586  143.7350  171.5033 N.pl3   1  UNL1       -0.3375
      2 C         142.8788  143.0120  170.2797 C.ar    1  UNL1        0.1567
      3 N         143.6329  142.8619  168.9917 N.ar    1  UNL1       -0.2245
      4 C         142.7809  142.0693  168.0453 C.ar    1  UNL1        0.0889
      5 C         143.0058  141.6130  166.6342 C.ar    1  UNL1        0.0152
      6 C         141.9498  140.8170  165.9261 C.ar    1  UNL1       -0.0228
      7 C         140.6692  140.4772  166.6290 C.ar    1  UNL1       -0.0238
      8 C         140.4442  140.9334  168.0401 C.ar    1  UNL1        0.0036
      9 C         141.5001  141.7295  168.7483 C.ar    1  UNL1        0.0494
     10 S         141.5607  142.3121  170.1292 S.2     1  UNL1       -0.0520
     11 C         139.4955  139.7000  166.1108 C.3     1  UNL1        0.0475
     12 C         139.3128  139.0708  164.7614 C.3     1  UNL1        0.0984
     13 N         140.2585  139.0633  163.5972 N.am    1  UNL1       -0.2754
     14 C         139.7787  138.3402  162.3737 C.2     1  UNL1        0.2490
     15 O         138.4296  137.6844  162.3707 O.2     1  UNL1       -0.2699
     16 C         141.6206  139.6831  163.4947 C.3     1  UNL1        0.0984
     17 C         142.3733  140.4636  164.5311 C.3     1  UNL1        0.0476
     18 H         144.2440  144.1654  171.5052 H       1  UNL1        0.1442
     19 H         142.7880  143.7791  172.3044 H       1  UNL1        0.1442
     20 C         140.6480  138.2730  161.1530 C.ar    1  UNL1        0.0536
     21 C         140.1429  138.8002  159.8426 C.ar    1  UNL1        0.0045
     22 C         141.0121  138.7329  158.6220 C.ar    1  UNL1        0.0001
     23 C         142.3864  138.1386  158.7117 C.ar    1  UNL1        0.0000
     24 C         142.8915  137.6114  160.0221 C.ar    1  UNL1        0.0001
     25 C         142.0223  137.6786  161.2427 C.ar    1  UNL1        0.0045
@<TRIPOS>BOND
     1     1     2    1
     2     2     3   ar
     3     3     4   ar
     4     4     5   ar
     5     5     6   ar
     6     6     7   ar
     7     7     8   ar
     8     8     9   ar
     9     9    10   ar
    10     7    11    1
    11    11    12    1
    12    12    13    1
    13    13    14   am
    14    14    15    2
    15    14    20    1
    16    20    21   ar
    17    21    22   ar
    18    22    23   ar
    19    23    24   ar
    20    24    25   ar
    21    13    16    1
    22    16    17    1
    23    10     2   ar
    24    25    20   ar
    25     9     4   ar
    26    17     6    1
    27     1    18    1
    28     1    19    1
@<TRIPOS>MOLECULE
*****
 25 28 0 0 0
SMALL
GASTEIGER

@<TRIPOS>ATOM
      1 N         142.6595  140.2757  171.7931 N.pl3   1  UNL1       -0.3375
      2 C         142.1405  140.2166  170.3870 C.ar    1  UNL1        0.1567
      3 N         142.9723  140.2301  169.1388 N.ar    1  UNL1       -0.2245
      4 C         142.0444  140.1556  167.9626 C.ar    1  UNL1        0.0889
      5 C         142.2976  140.1342  166.4843 C.ar    1  UNL1        0.0152
      6 C         141.1454  140.0533  165.5272 C.ar    1  UNL1       -0.0228
      7 C         139.7402  139.9938  166.0484 C.ar    1  UNL1       -0.0238
      8 C         139.4870  140.0152  167.5267 C.ar    1  UNL1        0.0036
      9 C         140.6391  140.0960  168.4839 C.ar    1  UNL1        0.0494
     10 S         140.6986  140.1338  169.9822 S.2     1  UNL1       -0.0520
     11 C         138.4582  139.9106  165.2740 C.3     1  UNL1        0.0475
     12 C         138.2649  139.8663  163.7871 C.3     1  UNL1        0.0984
     13 N         139.3058  139.8943  162.7076 N.am    1  UNL1       -0.2754
     14 C         138.7868  139.8352  161.3014 C.2     1  UNL1        0.2490
     15 O         137.3102  139.7542  161.0498 O.2     1  UNL1       -0.2699
     16 C         140.7971  139.9735  162.8480 C.3     1  UNL1        0.0984
     17 C         141.6158  140.0443  164.1029 C.3     1  UNL1        0.0476
     18 H         143.6286  140.3289  171.9583 H       1  UNL1        0.1442
     19 H         142.0311  140.2612  172.5508 H       1  UNL1        0.1442
     20 C         139.7442  139.8572  160.1469 C.ar    1  UNL1        0.0536
     21 C         140.2718  141.1648  159.6349 C.ar    1  UNL1        0.0045
     22 C         141.2292  141.1869  158.4805 C.ar    1  UNL1        0.0001
     23 C         141.6591  139.9014  157.8380 C.ar    1  UNL1        0.0000
     24 C         141.1316  138.5939  158.3500 C.ar    1  UNL1        0.0001
     25 C         140.1742  138.5718  159.5044 C.ar    1  UNL1        0.0045
@<TRIPOS>BOND
     1     1     2    1
     2     2     3   ar
     3     3     4   ar
     4     4     5   ar
     5     5     6   ar
     6     6     7   ar
     7     7     8   ar
     8     8     9   ar
     9     9    10   ar
    10     7    11    1
    11    11    12    1
    12    12    13    1
    13    13    14   am
    14    14    15    2
    15    14    20    1
    16    20    21   ar
    17    21    22   ar
    18    22    23   ar
    19    23    24   ar
    20    24    25   ar
    21    13    16    1
    22    16    17    1
    23    10     2   ar
    24    25    20   ar
    25     9     4   ar
    26    17     6    1
    27     1    18    1
    28     1    19    1
@<TRIPOS>MOLECULE
*****
 25 28 0 0 0
SMALL
GASTEIGER

@<TRIPOS>ATOM
      1 N         142.4251  139.7198  157.0635 N.pl3   1  UNL1       -0.3375
      2 C         142.4111  139.7477  158.5632 C.ar    1  UNL1        0.1567
      3 N         141.6655  140.7276  159.4199 N.ar    1  UNL1       -0.2245
      4 C         141.9339  140.3861  160.8556 C.ar    1  UNL1        0.0889
      5 C         141.4660  141.0058  162.1391 C.ar    1  UNL1        0.0152
      6 C         141.9096  140.4345  163.4532 C.ar    1  UNL1       -0.0228
      7 C         142.8210  139.2436  163.4838 C.ar    1  UNL1       -0.0238
      8 C         143.2888  138.6239  162.2005 C.ar    1  UNL1        0.0036
      9 C         142.8453  139.1951  160.8863 C.ar    1  UNL1        0.0494
     10 S         143.1402  138.8006  159.4695 S.2     1  UNL1       -0.0520
     11 C         143.3783  138.5228  164.6755 C.3     1  UNL1        0.0475
     12 C         143.1618  138.8151  166.1308 C.3     1  UNL1        0.0984
     13 N         142.3346  139.9001  166.7537 N.am    1  UNL1       -0.2754
     14 C         142.3206  139.9281  168.2534 C.2     1  UNL1        0.2490
     15 O         143.1029  138.9106  169.0298 O.2     1  UNL1       -0.2699
     16 C         141.5195  140.9611  166.0754 C.3     1  UNL1        0.0984
     17 C         141.3304  141.1989  164.6065 C.3     1  UNL1        0.0476
     18 H         141.9117  140.3875  156.5539 H       1  UNL1        0.1442
     19 H         142.9478  139.0336  156.5888 H       1  UNL1        0.1442
     20 C         141.5243  140.9735  168.9767 C.ar    1  UNL1        0.0536
     21 C         140.1507  140.6510  169.4859 C.ar    1  UNL1        0.0045
     22 C         139.3544  141.6962  170.2092 C.ar    1  UNL1        0.0001
     23 C         139.9316  143.0641  170.4233 C.ar    1  UNL1        0.0000
     24 C         141.3052  143.3866  169.9141 C.ar    1  UNL1        0.0001
     25 C         142.1015  142.3413  169.1909 C.ar    1  UNL1        0.0045
@<TRIPOS>BOND
     1     1     2    1
     2     2     3   ar
     3     3     4   ar
     4     4     5   ar
     5     5     6   ar
     6     6     7   ar
     7     7     8   ar
     8     8     9   ar
     9     9    10   ar
    10     7    11    1
    11    11    12    1
    12    12    13    1
    13    13    14   am
    14    14    15    2
    15    14    20    1
    16    20    21   ar
    17    21    22   ar
    18    22    23   ar
    19    23    24   ar
    20    24    25   ar
    21    13    16    1
    22    16    17    1
    23    10     2   ar
    24    25    20   ar
    25     9     4   ar
    26    17     6    1
    27     1    18    1
    28     1    19    1
@<TRIPOS>MOLECULE
*****
 25 28 0 0 0
SMALL
GASTEIGER

@<TRIPOS>ATOM
      1 N         139.5244  146.1928  154.2366 N.pl3   1  UNL1       -0.3375
      2 C         139.6934  145.6093  155.6081 C.ar    1  UNL1        0.1567
      3 N         139.0887  144.3284  156.1020 N.ar    1  UNL1       -0.2245
      4 C         139.5183  144.1318  157.5256 C.ar    1  UNL1        0.0889
      5 C         139.2295  143.0468  158.5204 C.ar    1  UNL1        0.0152
      6 C         139.8109  143.1211  159.9012 C.ar    1  UNL1       -0.0228
      7 C         140.6809  144.2803  160.2871 C.ar    1  UNL1       -0.0238
      8 C         140.9697  145.3653  159.2925 C.ar    1  UNL1        0.0036
      9 C         140.3884  145.2910  157.9117 C.ar    1  UNL1        0.0494
     10 S         140.4966  146.2042  156.7266 S.2     1  UNL1       -0.0520
     11 C         141.3556  144.5470  161.6001 C.3     1  UNL1        0.0475
     12 C         141.3266  143.7201  162.8514 C.3     1  UNL1        0.0984
     13 N         140.6160  142.4225  163.0986 N.am    1  UNL1       -0.2754
     14 C         140.7849  141.8390  164.4701 C.2     1  UNL1        0.2490
     15 O         141.6230  142.5512  165.4902 O.2     1  UNL1       -0.2699
     16 C         139.7587  141.6312  162.1557 C.3     1  UNL1        0.0984
     17 C         139.4004  141.9421  160.7327 C.3     1  UNL1        0.0476
     18 H         138.9744  145.7254  153.5671 H       1  UNL1        0.1442
     19 H         139.9636  147.0432  154.0060 H       1  UNL1        0.1442
     20 C         140.1158  140.5433  164.8216 C.ar    1  UNL1        0.0536
     21 C         140.7687  139.2409  164.4639 C.ar    1  UNL1        0.0045
     22 C         140.0997  137.9453  164.8154 C.ar    1  UNL1        0.0001
     23 C         138.7779  137.9518  165.5244 C.ar    1  UNL1        0.0000
     24 C         138.1251  139.2542  165.8821 C.ar    1  UNL1        0.0001
     25 C         138.7940  140.5498  165.5306 C.ar    1  UNL1        0.0045
@<TRIPOS>BOND
     1     1     2    1
     2     2     3   ar
     3     3     4   ar
     4     4     5   ar
     5     5     6   ar
     6     6     7   ar
     7     7     8   ar
     8     8     9   ar
     9     9    10   ar
    10     7    11    1
    11    11    12    1
    12    12    13    1
    13    13    14   am
    14    14    15    2
    15    14    20    1
    16    20    21   ar
    17    21    22   ar
    18    22    23   ar
    19    23    24   ar
    20    24    25   ar
    21    13    16    1
    22    16    17    1
    23    10     2   ar
    24    25    20   ar
    25     9     4   ar
    26    17     6    1
    27     1    18    1
    28     1    19    1
@<TRIPOS>MOLECULE
*****
 25 28 0 0 0
SMALL
GASTEIGER

@<TRIPOS>ATOM
      1 N         142.2707  142.2212  171.4783 N.pl3   1  UNL1       -0.3375
      2 C         142.0133  142.3289  170.0045 C.ar    1  UNL1        0.1567
      3 N         142.9921  142.0120  168.9129 N.ar    1  UNL1       -0.2245
      4 C         142.3155  142.2597  167.5973 C.ar    1  UNL1        0.0889
      5 C         142.7910  142.1179  166.1817 C.ar    1  UNL1        0.0152
      6 C         141.8695  142.4463  165.0446 C.ar    1  UNL1       -0.0228
      7 C         140.4726  142.9163  165.3230 C.ar    1  UNL1       -0.0238
      8 C         139.9971  143.0581  166.7385 C.ar    1  UNL1        0.0036
      9 C         140.9185  142.7297  167.8757 C.ar    1  UNL1        0.0494
     10 S         140.7318  142.7725  169.3634 S.2     1  UNL1       -0.0520
     11 C         139.4002  143.2936  164.3443 C.3     1  UNL1        0.0475
     12 C         139.4601  143.2941  162.8454 C.3     1  UNL1        0.0984
     13 N         140.6070  142.9173  161.9553 N.am    1  UNL1       -0.2754
     14 C         140.3495  143.0250  160.4814 C.2     1  UNL1        0.2490
     15 O         139.0109  143.4860  159.9856 O.2     1  UNL1       -0.2699
     16 C         141.9774  142.4470  162.3438 C.3     1  UNL1        0.0984
     17 C         142.5392  142.2374  163.7187 C.3     1  UNL1        0.0476
     18 H         143.1493  141.9186  171.8037 H       1  UNL1        0.1442
     19 H         141.5612  142.4530  172.1202 H       1  UNL1        0.1442
     20 C         141.4306  142.6718  159.5033 C.ar    1  UNL1        0.0536
     21 C         141.5967  141.2517  159.0496 C.ar    1  UNL1        0.0045
     22 C         142.6777  140.8985  158.0716 C.ar    1  UNL1        0.0001
     23 C         143.5926  141.9652  157.5473 C.ar    1  UNL1        0.0000
     24 C         143.4265  143.3853  158.0010 C.ar    1  UNL1        0.0001
     25 C         142.3455  143.7386  158.9790 C.ar    1  UNL1        0.0045
@<TRIPOS>BOND
     1     1     2    1
     2     2     3   ar
     3     3     4   ar
     4     4     5   ar
     5     5     6   ar
     6     6     7   ar
     7     7     8   ar
     8     8     9   ar
     9     9    10   ar
    10     7    11    1
    11    11    12    1
    12    12    13    1
    13    13    14   am
    14    14    15    2
    15    14    20    1
    16    20    21   ar
    17    21    22   ar
    18    22    23   ar
    19    23    24   ar
    20    24    25   ar
    21    13    16    1
    22    16    17    1
    23    10     2   ar
    24    25    20   ar
    25     9     4   ar
    26    17     6    1
    27     1    18    1
    28     1    19    1
