@<TRIPOS>MOLECULE
*****
 38 42 0 0 0
SMALL
GASTEIGER

@<TRIPOS>ATOM
      1 C         141.2360  145.1387  160.0989 C.ar    1  UNL1        0.1169
      2 C         140.1547  145.3559  161.1154 C.ar    1  UNL1        0.0365
      3 C         140.3726  144.9451  162.5415 C.ar    1  UNL1        0.0478
      4 C         141.6717  144.3170  162.9510 C.ar    1  UNL1        0.0340
      5 C         141.8895  143.9062  164.3772 C.ar    1  UNL1        0.0428
      6 C         143.1887  143.2781  164.7866 C.ar    1  UNL1        0.1725
      7 C         144.2701  143.0609  163.7700 C.ar    1  UNL1        0.1737
      8 C         144.0522  143.4717  162.3439 C.ar    1  UNL1        0.0592
      9 C         142.7530  144.0998  161.9344 C.ar    1  UNL1        0.0858
     10 N         142.5352  144.5106  160.5083 N.ar    1  UNL1       -0.2421
     11 C         140.0106  146.4590  156.6607 C.ar    1  UNL1        0.1229
     12 C         141.3556  145.9042  156.2955 C.ar    1  UNL1        0.0361
     13 C         141.9782  145.3420  157.5390 C.ar    1  UNL1        0.0418
     14 C         141.0182  145.5495  158.6727 C.ar    1  UNL1        0.1624
     15 O         139.8022  146.2398  158.1299 O.2     1  UNL1       -0.4562
     16 C         139.5532  147.9641  154.5930 C.3     1  UNL1        0.0084
     17 C         139.0439  147.1175  155.7216 C.3     1  UNL1        0.0645
     18 N         139.2912  145.1624  163.5582 N.pl3   1  UNL1       -0.3326
     19 H         139.4415  145.7761  164.3132 H       1  UNL1        0.1468
     20 C         137.9809  144.4445  163.4245 C.3     1  UNL1        0.0870
     21 C         137.9568  142.9880  163.0672 C.3     1  UNL1        0.0223
     22 C         137.9678  141.9498  164.1498 C.3     1  UNL1        0.0191
     23 C         137.9436  140.4932  163.7923 C.3     1  UNL1        0.0722
     24 N         137.9085  140.0748  162.3523 N.3     1  UNL1       -0.2715
     25 C         137.8844  138.6182  161.9949 C.3     1  UNL1        0.0896
     26 C         137.8975  141.1129  161.2697 C.3     1  UNL1        0.0722
     27 C         137.9216  142.5695  161.6271 C.3     1  UNL1        0.0191
     28 O         143.4066  142.8673  166.2127 O.3     1  UNL1       -0.4684
     29 C         142.5873  141.7607  166.8080 C.3     1  UNL1        0.2526
     30 O         145.5692  142.4328  164.1794 O.3     1  UNL1       -0.4723
     31 C         145.8114  140.9750  163.9223 C.3     1  UNL1        0.2070
     32 C         144.7655  139.9647  164.2899 C.3     1  UNL1        0.0646
     33 C         144.0919  139.1589  163.2189 C.3     1  UNL1        0.0759
     34 N         142.8306  138.4077  163.5269 N.3     1  UNL1       -0.2726
     35 C         142.2728  138.1443  164.8943 C.3     1  UNL1        0.0721
     36 C         141.0031  137.3619  164.7340 C.3     1  UNL1        0.0188
     37 C         140.7761  137.1418  163.2677 C.3     1  UNL1        0.0188
     38 C         141.9056  137.7881  162.5217 C.3     1  UNL1        0.0721
@<TRIPOS>BOND
     1    16    17    1
     2    17    11    1
     3    11    12   ar
     4    12    13   ar
     5    13    14   ar
     6    14     1    1
     7     1     2   ar
     8     2     3   ar
     9     3    18    1
    10    18    20    1
    11    20    21    1
    12    21    22    1
    13    22    23    1
    14    23    24    1
    15    24    25    1
    16    24    26    1
    17    26    27    1
    18     3     4   ar
    19     4     5   ar
    20     5     6   ar
    21     6    28    1
    22    28    29    1
    23     6     7   ar
    24     7    30    1
    25    30    31    1
    26    31    32    1
    27    32    33    1
    28    33    34    1
    29    34    35    1
    30    35    36    1
    31    36    37    1
    32    37    38    1
    33     7     8   ar
    34     8     9   ar
    35     9    10   ar
    36    14    15   ar
    37    15    11   ar
    38    10     1   ar
    39    27    21    1
    40     9     4   ar
    41    38    34    1
    42    18    19    1
@<TRIPOS>MOLECULE
*****
 38 42 0 0 0
SMALL
GASTEIGER

@<TRIPOS>ATOM
      1 C         141.1927  145.1315  160.0430 C.ar    1  UNL1        0.1169
      2 C         140.0601  145.3020  161.0116 C.ar    1  UNL1        0.0365
      3 C         140.2221  144.8692  162.4386 C.ar    1  UNL1        0.0478
      4 C         141.5167  144.2659  162.8971 C.ar    1  UNL1        0.0340
      5 C         141.6786  143.8331  164.3242 C.ar    1  UNL1        0.0428
      6 C         142.9732  143.2299  164.7826 C.ar    1  UNL1        0.1725
      7 C         144.1058  143.0594  163.8140 C.ar    1  UNL1        0.1737
      8 C         143.9438  143.4921  162.3869 C.ar    1  UNL1        0.0592
      9 C         142.6492  144.0954  161.9285 C.ar    1  UNL1        0.0858
     10 N         142.4872  144.5282  160.5015 N.ar    1  UNL1       -0.2421
     11 C         140.0805  146.4525  156.5669 C.ar    1  UNL1        0.1229
     12 C         141.4827  146.0079  156.2729 C.ar    1  UNL1        0.0361
     13 C         142.0699  145.4589  157.5393 C.ar    1  UNL1        0.0418
     14 C         141.0307  145.5643  158.6159 C.ar    1  UNL1        0.1624
     15 O         139.8012  146.1783  158.0149 O.2     1  UNL1       -0.4562
     16 C         139.5999  148.1278  154.6401 C.3     1  UNL1        0.0084
     17 C         139.1253  147.0640  155.5851 C.3     1  UNL1        0.0645
     18 N         139.0895  145.0397  163.4073 N.pl3   1  UNL1       -0.3326
     19 H         139.1706  145.6786  164.1519 H       1  UNL1        0.1468
     20 C         137.8334  144.2367  163.2414 C.3     1  UNL1        0.0870
     21 C         137.9146  142.7584  163.0009 C.3     1  UNL1        0.0223
     22 C         137.8113  142.2188  161.6051 C.3     1  UNL1        0.0191
     23 C         137.8925  140.7403  161.3647 C.3     1  UNL1        0.0722
     24 N         138.0770  139.8016  162.5200 N.3     1  UNL1       -0.2715
     25 C         138.1582  138.3233  162.2795 C.3     1  UNL1        0.0896
     26 C         138.1804  140.3412  163.9157 C.3     1  UNL1        0.0722
     27 C         138.0992  141.8196  164.1562 C.3     1  UNL1        0.0191
     28 O         143.1352  142.7971  166.2096 O.3     1  UNL1       -0.4684
     29 C         142.6677  141.4379  166.6389 C.3     1  UNL1        0.2526
     30 O         145.4003  142.4561  164.2724 O.3     1  UNL1       -0.4723
     31 C         145.7886  141.0800  163.8190 C.3     1  UNL1        0.2070
     32 C         145.0233  139.8858  164.3069 C.3     1  UNL1        0.0646
     33 C         144.2168  139.0669  163.3431 C.3     1  UNL1        0.0759
     34 N         143.3025  139.7441  162.3656 N.3     1  UNL1       -0.2726
     35 C         143.6137  140.0438  160.9291 C.3     1  UNL1        0.0721
     36 C         142.4200  140.7254  160.3287 C.3     1  UNL1        0.0188
     37 C         141.3710  140.8469  161.3940 C.3     1  UNL1        0.0188
     38 C         141.9164  140.2404  162.6528 C.3     1  UNL1        0.0721
@<TRIPOS>BOND
     1    16    17    1
     2    17    11    1
     3    11    12   ar
     4    12    13   ar
     5    13    14   ar
     6    14     1    1
     7     1     2   ar
     8     2     3   ar
     9     3    18    1
    10    18    20    1
    11    20    21    1
    12    21    22    1
    13    22    23    1
    14    23    24    1
    15    24    25    1
    16    24    26    1
    17    26    27    1
    18     3     4   ar
    19     4     5   ar
    20     5     6   ar
    21     6    28    1
    22    28    29    1
    23     6     7   ar
    24     7    30    1
    25    30    31    1
    26    31    32    1
    27    32    33    1
    28    33    34    1
    29    34    35    1
    30    35    36    1
    31    36    37    1
    32    37    38    1
    33     7     8   ar
    34     8     9   ar
    35     9    10   ar
    36    14    15   ar
    37    15    11   ar
    38    10     1   ar
    39    27    21    1
    40     9     4   ar
    41    38    34    1
    42    18    19    1
@<TRIPOS>MOLECULE
*****
 38 42 0 0 0
SMALL
GASTEIGER

@<TRIPOS>ATOM
      1 C         141.5348  139.1009  164.6114 C.ar    1  UNL1        0.1169
      2 C         140.2449  138.5360  164.0946 C.ar    1  UNL1        0.0365
      3 C         140.0585  138.3172  162.6225 C.ar    1  UNL1        0.0478
      4 C         141.1619  138.6632  161.6671 C.ar    1  UNL1        0.0340
      5 C         140.9754  138.4443  160.1949 C.ar    1  UNL1        0.0428
      6 C         142.0788  138.7904  159.2395 C.ar    1  UNL1        0.1725
      7 C         143.3687  139.3552  159.7564 C.ar    1  UNL1        0.1737
      8 C         143.5552  139.5741  161.2285 C.ar    1  UNL1        0.0592
      9 C         142.4517  139.2281  162.1839 C.ar    1  UNL1        0.0858
     10 N         142.6382  139.4469  163.6561 N.ar    1  UNL1       -0.2421
     11 C         141.3152  139.9394  168.3949 C.ar    1  UNL1        0.1229
     12 C         142.7014  139.3736  168.3034 C.ar    1  UNL1        0.0361
     13 C         142.9524  138.9907  166.8749 C.ar    1  UNL1        0.0418
     14 C         141.7213  139.3197  166.0837 C.ar    1  UNL1        0.1624
     15 O         140.7095  139.9061  167.0230 O.2     1  UNL1       -0.4562
     16 C         139.1557  140.4319  169.7528 C.3     1  UNL1        0.0084
     17 C         140.6513  140.4490  169.6397 C.3     1  UNL1        0.0645
     18 N         138.7685  137.7523  162.1056 N.pl3   1  UNL1       -0.3326
     19 H         138.6495  136.7773  162.0396 H       1  UNL1        0.1468
     20 C         137.6600  138.6731  161.6893 C.3     1  UNL1        0.0870
     21 C         137.7549  140.1413  161.9813 C.3     1  UNL1        0.0223
     22 C         137.5059  140.6471  163.3713 C.3     1  UNL1        0.0191
     23 C         137.6009  142.1154  163.6634 C.3     1  UNL1        0.0722
     24 N         137.9449  143.0777  162.5654 N.3     1  UNL1       -0.2715
     25 C         138.0398  144.5459  162.8575 C.3     1  UNL1        0.0896
     26 C         138.1939  142.5719  161.1754 C.3     1  UNL1        0.0722
     27 C         138.0990  141.1037  160.8834 C.3     1  UNL1        0.0191
     28 O         141.8924  138.5715  157.7673 O.3     1  UNL1       -0.4684
     29 C         142.2574  137.2526  157.1530 C.3     1  UNL1        0.2526
     30 O         144.4722  139.7013  158.8010 O.3     1  UNL1       -0.4723
     31 C         144.3673  140.9302  157.9474 C.3     1  UNL1        0.2070
     32 C         144.6027  142.2838  158.5494 C.3     1  UNL1        0.0646
     33 C         143.4428  143.0983  159.0403 C.3     1  UNL1        0.0759
     34 N         143.0522  143.0508  160.4878 N.3     1  UNL1       -0.2726
     35 C         141.6737  142.7951  161.0211 C.3     1  UNL1        0.0721
     36 C         141.7411  142.8370  162.5191 C.3     1  UNL1        0.0188
     37 C         143.1612  143.1185  162.9115 C.3     1  UNL1        0.0188
     38 C         143.9715  143.2507  161.6561 C.3     1  UNL1        0.0721
@<TRIPOS>BOND
     1    16    17    1
     2    17    11    1
     3    11    12   ar
     4    12    13   ar
     5    13    14   ar
     6    14     1    1
     7     1     2   ar
     8     2     3   ar
     9     3    18    1
    10    18    20    1
    11    20    21    1
    12    21    22    1
    13    22    23    1
    14    23    24    1
    15    24    25    1
    16    24    26    1
    17    26    27    1
    18     3     4   ar
    19     4     5   ar
    20     5     6   ar
    21     6    28    1
    22    28    29    1
    23     6     7   ar
    24     7    30    1
    25    30    31    1
    26    31    32    1
    27    32    33    1
    28    33    34    1
    29    34    35    1
    30    35    36    1
    31    36    37    1
    32    37    38    1
    33     7     8   ar
    34     8     9   ar
    35     9    10   ar
    36    14    15   ar
    37    15    11   ar
    38    10     1   ar
    39    27    21    1
    40     9     4   ar
    41    38    34    1
    42    18    19    1
@<TRIPOS>MOLECULE
*****
 38 42 0 0 0
SMALL
GASTEIGER

@<TRIPOS>ATOM
      1 C         143.0296  140.7409  165.6355 C.ar    1  UNL1        0.1169
      2 C         143.7134  139.7193  164.7762 C.ar    1  UNL1        0.0365
      3 C         143.9313  139.9913  163.3172 C.ar    1  UNL1        0.0478
      4 C         143.4654  141.2849  162.7177 C.ar    1  UNL1        0.0340
      5 C         143.6833  141.5569  161.2587 C.ar    1  UNL1        0.0428
      6 C         143.2173  142.8505  160.6592 C.ar    1  UNL1        0.1725
      7 C         142.5334  143.8721  161.5186 C.ar    1  UNL1        0.1737
      8 C         142.3155  143.6001  162.9776 C.ar    1  UNL1        0.0592
      9 C         142.7815  142.3065  163.5771 C.ar    1  UNL1        0.0858
     10 N         142.5636  142.0345  165.0360 N.ar    1  UNL1       -0.2421
     11 C         142.4051  140.7862  169.4662 C.ar    1  UNL1        0.1229
     12 C         142.5475  139.3145  169.2131 C.ar    1  UNL1        0.0361
     13 C         142.7987  139.1185  167.7474 C.ar    1  UNL1        0.0418
     14 C         142.8116  140.4690  167.0946 C.ar    1  UNL1        0.1624
     15 O         142.5684  141.4996  168.1568 O.2     1  UNL1       -0.4562
     16 C         140.7836  141.9755  171.1113 C.3     1  UNL1        0.0084
     17 C         142.1452  141.4312  170.7953 C.3     1  UNL1        0.0645
     18 N         144.6152  138.9696  162.4578 N.pl3   1  UNL1       -0.3326
     19 H         145.5913  139.0043  162.3341 H       1  UNL1        0.1468
     20 C         143.8119  137.8953  161.7867 C.3     1  UNL1        0.0870
     21 C         142.3141  137.9755  161.7749 C.3     1  UNL1        0.0223
     22 C         141.6044  138.5762  160.5978 C.3     1  UNL1        0.0191
     23 C         140.1066  138.6563  160.5861 C.3     1  UNL1        0.0722
     24 N         139.3184  138.1358  161.7513 N.3     1  UNL1       -0.2715
     25 C         137.8207  138.2160  161.7395 C.3     1  UNL1        0.0896
     26 C         140.0281  137.5351  162.9284 C.3     1  UNL1        0.0722
     27 C         141.5259  137.4549  162.9402 C.3     1  UNL1        0.0191
     28 O         143.4352  143.1225  159.2002 O.3     1  UNL1       -0.4684
     29 C         144.5575  142.4457  158.4705 C.3     1  UNL1        0.2526
     30 O         142.0675  145.1657  160.9191 O.3     1  UNL1       -0.4723
     31 C         140.6164  145.3620  160.5939 C.3     1  UNL1        0.2070
     32 C         139.6340  144.2582  160.8518 C.3     1  UNL1        0.0646
     33 C         138.8050  144.2688  162.1018 C.3     1  UNL1        0.0759
     34 N         138.9227  143.1460  163.0894 N.3     1  UNL1       -0.2726
     35 C         138.8351  143.2715  164.5816 C.3     1  UNL1        0.0721
     36 C         139.0069  141.9035  165.1726 C.3     1  UNL1        0.0188
     37 C         139.2006  140.9327  164.0458 C.3     1  UNL1        0.0188
     38 C         139.1486  141.7006  162.7583 C.3     1  UNL1        0.0721
@<TRIPOS>BOND
     1    16    17    1
     2    17    11    1
     3    11    12   ar
     4    12    13   ar
     5    13    14   ar
     6    14     1    1
     7     1     2   ar
     8     2     3   ar
     9     3    18    1
    10    18    20    1
    11    20    21    1
    12    21    22    1
    13    22    23    1
    14    23    24    1
    15    24    25    1
    16    24    26    1
    17    26    27    1
    18     3     4   ar
    19     4     5   ar
    20     5     6   ar
    21     6    28    1
    22    28    29    1
    23     6     7   ar
    24     7    30    1
    25    30    31    1
    26    31    32    1
    27    32    33    1
    28    33    34    1
    29    34    35    1
    30    35    36    1
    31    36    37    1
    32    37    38    1
    33     7     8   ar
    34     8     9   ar
    35     9    10   ar
    36    14    15   ar
    37    15    11   ar
    38    10     1   ar
    39    27    21    1
    40     9     4   ar
    41    38    34    1
    42    18    19    1
@<TRIPOS>MOLECULE
*****
 38 42 0 0 0
SMALL
GASTEIGER

@<TRIPOS>ATOM
      1 C         140.4042  139.1468  159.0944 C.ar    1  UNL1        0.1169
      2 C         139.5485  138.4442  160.1064 C.ar    1  UNL1        0.0365
      3 C         138.7964  139.2380  161.1331 C.ar    1  UNL1        0.0478
      4 C         138.9000  140.7344  161.1479 C.ar    1  UNL1        0.0340
      5 C         138.1478  141.5281  162.1747 C.ar    1  UNL1        0.0428
      6 C         138.2514  143.0245  162.1895 C.ar    1  UNL1        0.1725
      7 C         139.1071  143.7270  161.1774 C.ar    1  UNL1        0.1737
      8 C         139.8592  142.9333  160.1507 C.ar    1  UNL1        0.0592
      9 C         139.7556  141.4369  160.1359 C.ar    1  UNL1        0.0858
     10 N         140.5078  140.6432  159.1092 N.ar    1  UNL1       -0.2421
     11 C         141.6843  136.7646  156.3102 C.ar    1  UNL1        0.1229
     12 C         142.9434  137.4987  156.6650 C.ar    1  UNL1        0.0361
     13 C         142.6171  138.4804  157.7512 C.ar    1  UNL1        0.0418
     14 C         141.1563  138.3531  158.0676 C.ar    1  UNL1        0.1624
     15 O         140.5799  137.2926  157.1770 O.2     1  UNL1       -0.4562
     16 C         142.5135  135.6393  154.1202 C.3     1  UNL1        0.0084
     17 C         141.5528  135.6910  155.2709 C.3     1  UNL1        0.0645
     18 N         137.9406  138.5354  162.1452 N.pl3   1  UNL1       -0.3326
     19 H         136.9721  138.7094  162.1767 H       1  UNL1        0.1468
     20 C         138.5605  137.5678  163.1092 C.3     1  UNL1        0.0870
     21 C         139.6096  138.0374  164.0729 C.3     1  UNL1        0.0223
     22 C         139.2999  139.1421  165.0392 C.3     1  UNL1        0.0191
     23 C         140.3491  139.6117  166.0029 C.3     1  UNL1        0.0722
     24 N         141.7079  138.9765  166.0004 N.3     1  UNL1       -0.2715
     25 C         142.7570  139.4461  166.9641 C.3     1  UNL1        0.0896
     26 C         142.0177  137.8718  165.0341 C.3     1  UNL1        0.0722
     27 C         140.9686  137.4022  164.0704 C.3     1  UNL1        0.0191
     28 O         137.4992  143.8182  163.2162 O.3     1  UNL1       -0.4684
     29 C         138.0508  143.9635  164.6036 C.3     1  UNL1        0.2526
     30 O         139.2107  145.2234  161.1922 O.3     1  UNL1       -0.4723
     31 C         140.3938  145.8870  161.8323 C.3     1  UNL1        0.2070
     32 C         141.0932  145.2257  162.9827 C.3     1  UNL1        0.0646
     33 C         142.4323  144.5822  162.7766 C.3     1  UNL1        0.0759
     34 N         142.5261  143.1028  162.5468 N.3     1  UNL1       -0.2726
     35 C         143.3256  142.4263  161.4728 C.3     1  UNL1        0.0721
     36 C         143.1305  140.9457  161.6129 C.3     1  UNL1        0.0188
     37 C         142.2104  140.7071  162.7733 C.3     1  UNL1        0.0188
     38 C         141.8369  142.0403  163.3505 C.3     1  UNL1        0.0721
@<TRIPOS>BOND
     1    16    17    1
     2    17    11    1
     3    11    12   ar
     4    12    13   ar
     5    13    14   ar
     6    14     1    1
     7     1     2   ar
     8     2     3   ar
     9     3    18    1
    10    18    20    1
    11    20    21    1
    12    21    22    1
    13    22    23    1
    14    23    24    1
    15    24    25    1
    16    24    26    1
    17    26    27    1
    18     3     4   ar
    19     4     5   ar
    20     5     6   ar
    21     6    28    1
    22    28    29    1
    23     6     7   ar
    24     7    30    1
    25    30    31    1
    26    31    32    1
    27    32    33    1
    28    33    34    1
    29    34    35    1
    30    35    36    1
    31    36    37    1
    32    37    38    1
    33     7     8   ar
    34     8     9   ar
    35     9    10   ar
    36    14    15   ar
    37    15    11   ar
    38    10     1   ar
    39    27    21    1
    40     9     4   ar
    41    38    34    1
    42    18    19    1
@<TRIPOS>MOLECULE
*****
 38 42 0 0 0
SMALL
GASTEIGER

@<TRIPOS>ATOM
      1 C         142.2054  138.5210  158.3829 C.ar    1  UNL1        0.1169
      2 C         140.7765  138.4177  158.8273 C.ar    1  UNL1        0.0365
      3 C         140.1946  139.4641  159.7307 C.ar    1  UNL1        0.0478
      4 C         141.0416  140.6139  160.1897 C.ar    1  UNL1        0.0340
      5 C         140.4596  141.6604  161.0932 C.ar    1  UNL1        0.0428
      6 C         141.3066  142.8102  161.5522 C.ar    1  UNL1        0.1725
      7 C         142.7355  142.9134  161.1077 C.ar    1  UNL1        0.1737
      8 C         143.3175  141.8670  160.2042 C.ar    1  UNL1        0.0592
      9 C         142.4705  140.7172  159.7453 C.ar    1  UNL1        0.0858
     10 N         143.0524  139.6707  158.8418 N.ar    1  UNL1       -0.2421
     11 C         143.5559  135.3419  156.6121 C.ar    1  UNL1        0.1229
     12 C         143.8101  136.3864  155.5660 C.ar    1  UNL1        0.0361
     13 C         143.3352  137.7044  156.1020 C.ar    1  UNL1        0.0418
     14 C         142.7874  137.4745  157.4794 C.ar    1  UNL1        0.1624
     15 O         142.9238  136.0143  157.7946 O.2     1  UNL1       -0.4562
     16 C         144.4733  133.1496  157.6620 C.3     1  UNL1        0.0084
     17 C         143.8773  133.8813  156.4961 C.3     1  UNL1        0.0645
     18 N         138.7657  139.3609  160.1752 N.pl3   1  UNL1       -0.3326
     19 H         138.0866  139.9625  159.7930 H       1  UNL1        0.1468
     20 C         138.3715  138.3410  161.2021 C.3     1  UNL1        0.0870
     21 C         138.5551  138.6360  162.6612 C.3     1  UNL1        0.0223
     22 C         139.2096  137.6243  163.5545 C.3     1  UNL1        0.0191
     23 C         139.3932  137.9194  165.0137 C.3     1  UNL1        0.0722
     24 N         138.9223  139.2263  165.5796 N.3     1  UNL1       -0.2715
     25 C         139.1059  139.5214  167.0387 C.3     1  UNL1        0.0896
     26 C         138.2678  140.2381  164.6863 C.3     1  UNL1        0.0722
     27 C         138.0842  139.9430  163.2272 C.3     1  UNL1        0.0191
     28 O         140.7247  143.8566  162.4556 O.3     1  UNL1       -0.4684
     29 C         140.1728  145.1253  161.8759 C.3     1  UNL1        0.2526
     30 O         143.5825  144.0632  161.5667 O.3     1  UNL1       -0.4723
     31 C         144.4748  143.9071  162.7622 C.3     1  UNL1        0.2070
     32 C         143.8769  143.7227  164.1254 C.3     1  UNL1        0.0646
     33 C         144.0396  142.4169  164.8454 C.3     1  UNL1        0.0759
     34 N         143.7787  141.1265  164.1266 N.3     1  UNL1       -0.2726
     35 C         144.7952  140.3085  163.3862 C.3     1  UNL1        0.0721
     36 C         144.1002  139.1040  162.8239 C.3     1  UNL1        0.0188
     37 C         142.6544  139.1774  163.2167 C.3     1  UNL1        0.0188
     38 C         142.4558  140.4274  164.0218 C.3     1  UNL1        0.0721
@<TRIPOS>BOND
     1    16    17    1
     2    17    11    1
     3    11    12   ar
     4    12    13   ar
     5    13    14   ar
     6    14     1    1
     7     1     2   ar
     8     2     3   ar
     9     3    18    1
    10    18    20    1
    11    20    21    1
    12    21    22    1
    13    22    23    1
    14    23    24    1
    15    24    25    1
    16    24    26    1
    17    26    27    1
    18     3     4   ar
    19     4     5   ar
    20     5     6   ar
    21     6    28    1
    22    28    29    1
    23     6     7   ar
    24     7    30    1
    25    30    31    1
    26    31    32    1
    27    32    33    1
    28    33    34    1
    29    34    35    1
    30    35    36    1
    31    36    37    1
    32    37    38    1
    33     7     8   ar
    34     8     9   ar
    35     9    10   ar
    36    14    15   ar
    37    15    11   ar
    38    10     1   ar
    39    27    21    1
    40     9     4   ar
    41    38    34    1
    42    18    19    1
@<TRIPOS>MOLECULE
*****
 38 42 0 0 0
SMALL
GASTEIGER

@<TRIPOS>ATOM
      1 C         138.3558  141.2972  158.2816 C.ar    1  UNL1        0.1169
      2 C         138.3218  140.0072  159.0463 C.ar    1  UNL1        0.0365
      3 C         139.3332  139.7466  160.1228 C.ar    1  UNL1        0.0478
      4 C         140.3787  140.7760  160.4348 C.ar    1  UNL1        0.0340
      5 C         141.3901  140.5154  161.5115 C.ar    1  UNL1        0.0428
      6 C         142.4356  141.5448  161.8235 C.ar    1  UNL1        0.1725
      7 C         142.4696  142.8349  161.0588 C.ar    1  UNL1        0.1737
      8 C         141.4582  143.0955  159.9822 C.ar    1  UNL1        0.0592
      9 C         140.4127  142.0660  159.6702 C.ar    1  UNL1        0.0858
     10 N         139.4013  142.3266  158.5936 N.ar    1  UNL1       -0.2421
     11 C         135.4183  141.3368  155.7449 C.ar    1  UNL1        0.1229
     12 C         136.1578  142.5812  155.3515 C.ar    1  UNL1        0.0361
     13 C         137.3482  142.7178  156.2538 C.ar    1  UNL1        0.0418
     14 C         137.3444  141.5578  157.2050 C.ar    1  UNL1        0.1624
     15 O         136.1517  140.7044  156.8904 O.2     1  UNL1       -0.4562
     16 C         133.1825  140.0246  155.9157 C.3     1  UNL1        0.0084
     17 C         134.1654  140.8162  155.1051 C.3     1  UNL1        0.0645
     18 N         139.2992  138.4566  160.8875 N.pl3   1  UNL1       -0.3326
     19 H         139.9407  137.7408  160.6743 H       1  UNL1        0.1468
     20 C         138.2878  138.2571  161.9772 C.3     1  UNL1        0.0870
     21 C         138.5785  138.7387  163.3676 C.3     1  UNL1        0.0223
     22 C         138.2857  140.1605  163.7454 C.3     1  UNL1        0.0191
     23 C         138.5764  140.6421  165.1360 C.3     1  UNL1        0.0722
     24 N         139.1599  139.7020  166.1487 N.3     1  UNL1       -0.2715
     25 C         139.4506  140.1836  167.5392 C.3     1  UNL1        0.0896
     26 C         139.4527  138.2802  165.7709 C.3     1  UNL1        0.0722
     27 C         139.1620  137.7985  164.3804 C.3     1  UNL1        0.0191
     28 O         143.4470  141.2842  162.9001 O.3     1  UNL1       -0.4684
     29 C         144.8069  140.7627  162.5412 C.3     1  UNL1        0.2526
     30 O         143.5150  143.8643  161.3707 O.3     1  UNL1       -0.4723
     31 C         143.5287  144.5370  162.7113 C.3     1  UNL1        0.2070
     32 C         142.2681  145.1331  163.2642 C.3     1  UNL1        0.0646
     33 C         141.4628  144.3765  164.2786 C.3     1  UNL1        0.0759
     34 N         139.9785  144.2421  164.1091 N.3     1  UNL1       -0.2726
     35 C         139.2565  144.0078  162.8152 C.3     1  UNL1        0.0721
     36 C         137.7873  143.9393  163.1102 C.3     1  UNL1        0.0188
     37 C         137.6014  144.1314  164.5861 C.3     1  UNL1        0.0188
     38 C         138.9556  144.3185  165.2035 C.3     1  UNL1        0.0721
@<TRIPOS>BOND
     1    16    17    1
     2    17    11    1
     3    11    12   ar
     4    12    13   ar
     5    13    14   ar
     6    14     1    1
     7     1     2   ar
     8     2     3   ar
     9     3    18    1
    10    18    20    1
    11    20    21    1
    12    21    22    1
    13    22    23    1
    14    23    24    1
    15    24    25    1
    16    24    26    1
    17    26    27    1
    18     3     4   ar
    19     4     5   ar
    20     5     6   ar
    21     6    28    1
    22    28    29    1
    23     6     7   ar
    24     7    30    1
    25    30    31    1
    26    31    32    1
    27    32    33    1
    28    33    34    1
    29    34    35    1
    30    35    36    1
    31    36    37    1
    32    37    38    1
    33     7     8   ar
    34     8     9   ar
    35     9    10   ar
    36    14    15   ar
    37    15    11   ar
    38    10     1   ar
    39    27    21    1
    40     9     4   ar
    41    38    34    1
    42    18    19    1
@<TRIPOS>MOLECULE
*****
 38 42 0 0 0
SMALL
GASTEIGER

@<TRIPOS>ATOM
      1 C         142.4822  143.3660  158.6376 C.ar    1  UNL1        0.1169
      2 C         142.8008  141.9458  158.2751 C.ar    1  UNL1        0.0365
      3 C         143.4800  141.0521  159.2701 C.ar    1  UNL1        0.0478
      4 C         143.8406  141.5787  160.6275 C.ar    1  UNL1        0.0340
      5 C         144.5198  140.6849  161.6226 C.ar    1  UNL1        0.0428
      6 C         144.8804  141.2115  162.9800 C.ar    1  UNL1        0.1725
      7 C         144.5617  142.6318  163.3425 C.ar    1  UNL1        0.1737
      8 C         143.8826  143.5254  162.3475 C.ar    1  UNL1        0.0592
      9 C         143.5220  142.9989  160.9900 C.ar    1  UNL1        0.0858
     10 N         142.8428  143.8925  159.9950 N.ar    1  UNL1       -0.2421
     11 C         140.3615  145.0511  155.8575 C.ar    1  UNL1        0.1229
     12 C         141.1542  146.2190  156.3654 C.ar    1  UNL1        0.0361
     13 C         142.0451  145.7298  157.4686 C.ar    1  UNL1        0.0418
     14 C         141.8030  144.2597  157.6425 C.ar    1  UNL1        0.1624
     15 O         140.7625  143.8403  156.6469 O.2     1  UNL1       -0.4562
     16 C         137.9304  145.4850  155.0505 C.3     1  UNL1        0.0084
     17 C         139.3461  145.0878  154.7541 C.3     1  UNL1        0.0645
     18 N         143.7986  139.6318  158.9076 N.pl3   1  UNL1       -0.3326
     19 H         144.7347  139.3539  158.7824 H       1  UNL1        0.1468
     20 C         142.6909  138.6350  158.7361 C.3     1  UNL1        0.0870
     21 C         141.7339  138.3760  159.8617 C.3     1  UNL1        0.0223
     22 C         140.2659  138.6158  159.6682 C.3     1  UNL1        0.0191
     23 C         139.3089  138.3568  160.7940 C.3     1  UNL1        0.0722
     24 N         139.8200  137.8581  162.1131 N.3     1  UNL1       -0.2715
     25 C         138.8630  137.5991  163.2387 C.3     1  UNL1        0.0896
     26 C         141.2880  137.6184  162.3065 C.3     1  UNL1        0.0722
     27 C         142.2450  137.8773  161.1809 C.3     1  UNL1        0.0191
     28 O         145.5595  140.3178  163.9750 O.3     1  UNL1       -0.4684
     29 C         144.7672  139.2820  164.7162 C.3     1  UNL1        0.2526
     30 O         144.9223  143.1584  164.6999 O.3     1  UNL1       -0.4723
     31 C         143.8530  143.3722  165.7298 C.3     1  UNL1        0.2070
     32 C         143.1692  142.1935  166.3568 C.3     1  UNL1        0.0646
     33 C         141.7159  141.9384  166.0867 C.3     1  UNL1        0.0759
     34 N         141.1902  142.0090  164.6836 N.3     1  UNL1       -0.2726
     35 C         141.2249  140.9016  163.6723 C.3     1  UNL1        0.0721
     36 C         140.5937  141.4076  162.4091 C.3     1  UNL1        0.0188
     37 C         140.1689  142.8276  162.6397 C.3     1  UNL1        0.0188
     38 C         140.5376  143.1992  164.0454 C.3     1  UNL1        0.0721
@<TRIPOS>BOND
     1    16    17    1
     2    17    11    1
     3    11    12   ar
     4    12    13   ar
     5    13    14   ar
     6    14     1    1
     7     1     2   ar
     8     2     3   ar
     9     3    18    1
    10    18    20    1
    11    20    21    1
    12    21    22    1
    13    22    23    1
    14    23    24    1
    15    24    25    1
    16    24    26    1
    17    26    27    1
    18     3     4   ar
    19     4     5   ar
    20     5     6   ar
    21     6    28    1
    22    28    29    1
    23     6     7   ar
    24     7    30    1
    25    30    31    1
    26    31    32    1
    27    32    33    1
    28    33    34    1
    29    34    35    1
    30    35    36    1
    31    36    37    1
    32    37    38    1
    33     7     8   ar
    34     8     9   ar
    35     9    10   ar
    36    14    15   ar
    37    15    11   ar
    38    10     1   ar
    39    27    21    1
    40     9     4   ar
    41    38    34    1
    42    18    19    1
@<TRIPOS>MOLECULE
*****
 38 42 0 0 0
SMALL
GASTEIGER

@<TRIPOS>ATOM
      1 C         142.0372  142.3821  165.4431 C.ar    1  UNL1        0.1169
      2 C         140.9194  143.3586  165.2266 C.ar    1  UNL1        0.0365
      3 C         140.7400  144.0081  163.8865 C.ar    1  UNL1        0.0478
      4 C         141.6783  143.6810  162.7629 C.ar    1  UNL1        0.0340
      5 C         141.4989  144.3306  161.4227 C.ar    1  UNL1        0.0428
      6 C         142.4372  144.0035  160.2991 C.ar    1  UNL1        0.1725
      7 C         143.5550  143.0269  160.5156 C.ar    1  UNL1        0.1737
      8 C         143.7344  142.3774  161.8557 C.ar    1  UNL1        0.0592
      9 C         142.7961  142.7045  162.9793 C.ar    1  UNL1        0.0858
     10 N         142.9755  142.0550  164.3194 N.ar    1  UNL1       -0.2421
     11 C         142.3111  141.3779  169.1823 C.ar    1  UNL1        0.1229
     12 C         142.6745  140.0879  168.5085 C.ar    1  UNL1        0.0361
     13 C         142.6161  140.3071  167.0257 C.ar    1  UNL1        0.0418
     14 C         142.2167  141.7325  166.7832 C.ar    1  UNL1        0.1624
     15 O         142.0282  142.3943  168.1161 O.2     1  UNL1       -0.4562
     16 C         140.9149  141.6171  171.3603 C.3     1  UNL1        0.0084
     17 C         142.2427  141.6106  170.6626 C.3     1  UNL1        0.0645
     18 N         139.6222  144.9847  163.6700 N.pl3   1  UNL1       -0.3326
     19 H         139.7590  145.9403  163.8635 H       1  UNL1        0.1468
     20 C         138.2960  144.5054  163.1586 C.3     1  UNL1        0.0870
     21 C         138.1173  143.0678  162.7696 C.3     1  UNL1        0.0223
     22 C         137.7568  142.0487  163.8094 C.3     1  UNL1        0.0191
     23 C         137.5781  140.6110  163.4203 C.3     1  UNL1        0.0722
     24 N         137.7600  140.1926  161.9914 N.3     1  UNL1       -0.2715
     25 C         137.5813  138.7551  161.6023 C.3     1  UNL1        0.0896
     26 C         138.1205  141.2118  160.9515 C.3     1  UNL1        0.0722
     27 C         138.2992  142.6494  161.3406 C.3     1  UNL1        0.0191
     28 O         142.2578  144.6530  158.9590 O.3     1  UNL1       -0.4684
     29 C         141.0138  145.4388  158.6668 C.3     1  UNL1        0.2526
     30 O         144.4933  142.6998  159.3919 O.3     1  UNL1       -0.4723
     31 C         144.3171  141.4301  158.6131 C.3     1  UNL1        0.2070
     32 C         142.9389  140.9264  158.3018 C.3     1  UNL1        0.0646
     33 C         142.5003  139.5828  158.8040 C.3     1  UNL1        0.0759
     34 N         142.5865  139.2642  160.2672 N.3     1  UNL1       -0.2726
     35 C         143.7774  138.6900  160.9759 C.3     1  UNL1        0.0721
     36 C         143.4238  138.5348  162.4254 C.3     1  UNL1        0.0188
     37 C         142.0145  139.0131  162.6126 C.3     1  UNL1        0.0188
     38 C         141.4970  139.4639  161.2788 C.3     1  UNL1        0.0721
@<TRIPOS>BOND
     1    16    17    1
     2    17    11    1
     3    11    12   ar
     4    12    13   ar
     5    13    14   ar
     6    14     1    1
     7     1     2   ar
     8     2     3   ar
     9     3    18    1
    10    18    20    1
    11    20    21    1
    12    21    22    1
    13    22    23    1
    14    23    24    1
    15    24    25    1
    16    24    26    1
    17    26    27    1
    18     3     4   ar
    19     4     5   ar
    20     5     6   ar
    21     6    28    1
    22    28    29    1
    23     6     7   ar
    24     7    30    1
    25    30    31    1
    26    31    32    1
    27    32    33    1
    28    33    34    1
    29    34    35    1
    30    35    36    1
    31    36    37    1
    32    37    38    1
    33     7     8   ar
    34     8     9   ar
    35     9    10   ar
    36    14    15   ar
    37    15    11   ar
    38    10     1   ar
    39    27    21    1
    40     9     4   ar
    41    38    34    1
    42    18    19    1
