@<TRIPOS>MOLECULE
*****
 25 29 0 0 0
SMALL
GASTEIGER

@<TRIPOS>ATOM
      1 O         137.5361  138.6968  167.1918 O.2     1  UNL1       -0.2666
      2 C         138.8498  139.2714  166.7513 C.2     1  UNL1        0.2834
      3 C         139.3064  139.0981  165.3331 C.ar    1  UNL1        0.1985
      4 N         138.6807  138.4147  164.1535 N.ar    1  UNL1       -0.2227
      5 C         139.6076  138.5669  162.9841 C.ar    1  UNL1        0.0988
      6 C         139.5150  138.0980  161.5623 C.ar    1  UNL1        0.0206
      7 C         140.6210  138.4065  160.5973 C.ar    1  UNL1        0.0016
      8 C         141.8197  139.1841  161.0540 C.ar    1  UNL1        0.0015
      9 C         141.9123  139.6530  162.4758 C.ar    1  UNL1        0.0174
     10 C         140.8062  139.3444  163.4408 C.ar    1  UNL1        0.0790
     11 N         140.6201  139.6727  164.8926 N.ar    1  UNL1       -0.3060
     12 C         141.4771  140.4207  165.8703 C.3     1  UNL1        0.1291
     13 C         141.0205  140.5940  167.2886 C.3     1  UNL1        0.1183
     14 N         139.7068  140.0194  167.7291 N.am    1  UNL1       -0.2716
     15 C         143.1110  140.4305  162.9325 C.ar    1  UNL1        0.0037
     16 C         144.2553  139.7234  163.5963 C.ar    1  UNL1        0.0002
     17 C         145.4539  140.5010  164.0530 C.ar    1  UNL1        0.0023
     18 C         145.5084  141.9856  163.8460 C.ar    1  UNL1        0.0296
     19 C         144.3641  142.6927  163.1823 C.ar    1  UNL1        0.1401
     20 F         144.4184  144.1774  162.9753 F       1  UNL1       -0.2042
     21 C         143.1654  141.9151  162.7255 C.ar    1  UNL1        0.0297
     22 C         139.2502  140.1927  169.1474 C.3     1  UNL1        0.0938
     23 C         139.8137  141.3009  169.9866 C.3     1  UNL1        0.0199
     24 C         140.7314  141.7658  171.0782 C.3     1  UNL1        0.0018
     25 C         139.8722  142.7554  170.3486 C.3     1  UNL1        0.0018
@<TRIPOS>BOND
     1     1     2    2
     2     2     3    1
     3     3     4   ar
     4     4     5   ar
     5     5     6   ar
     6     6     7   ar
     7     7     8   ar
     8     8     9   ar
     9     9    15    1
    10    15    16   ar
    11    16    17   ar
    12    17    18   ar
    13    18    19   ar
    14    19    20    1
    15    19    21   ar
    16     9    10   ar
    17    10    11   ar
    18    11    12    1
    19    12    13    1
    20    13    14    1
    21    14    22    1
    22    22    23    1
    23    23    24    1
    24    24    25    1
    25    14     2   am
    26    25    23    1
    27    11     3   ar
    28    10     5   ar
    29    21    15   ar
@<TRIPOS>MOLECULE
*****
 25 29 0 0 0
SMALL
GASTEIGER

@<TRIPOS>ATOM
      1 O         142.8282  137.4063  160.5109 O.2     1  UNL1       -0.2666
      2 C         142.2611  138.6332  161.1613 C.2     1  UNL1        0.2834
      3 C         141.2975  138.4995  162.3031 C.ar    1  UNL1        0.1985
      4 N         140.7259  137.2999  162.9989 N.ar    1  UNL1       -0.2227
      5 C         139.8056  137.7853  164.0793 C.ar    1  UNL1        0.0988
      6 C         138.9654  137.0555  165.0850 C.ar    1  UNL1        0.0206
      7 C         138.1280  137.8255  166.0626 C.ar    1  UNL1        0.0016
      8 C         138.1308  139.3252  166.0347 C.ar    1  UNL1        0.0015
      9 C         138.9710  140.0550  165.0290 C.ar    1  UNL1        0.0174
     10 C         139.8084  139.2851  164.0513 C.ar    1  UNL1        0.0790
     11 N         140.7305  139.7264  162.9536 N.ar    1  UNL1       -0.3060
     12 C         141.1270  141.0871  162.4623 C.3     1  UNL1        0.1291
     13 C         142.0906  141.2208  161.3205 C.3     1  UNL1        0.1183
     14 N         142.6577  139.9938  160.6700 N.am    1  UNL1       -0.2716
     15 C         138.9738  141.5547  165.0010 C.ar    1  UNL1        0.0037
     16 C         139.8955  142.3200  165.9037 C.ar    1  UNL1        0.0002
     17 C         139.8983  143.8197  165.8757 C.ar    1  UNL1        0.0023
     18 C         138.9795  144.5542  164.9450 C.ar    1  UNL1        0.0296
     19 C         138.0578  143.7890  164.0424 C.ar    1  UNL1        0.1401
     20 F         137.1388  144.5235  163.1117 F       1  UNL1       -0.2042
     21 C         138.0550  142.2892  164.0704 C.ar    1  UNL1        0.0297
     22 C         143.6212  140.1276  159.5282 C.3     1  UNL1        0.0938
     23 C         143.8766  141.4729  158.9160 C.3     1  UNL1        0.0199
     24 C         144.8367  142.5250  158.4456 C.3     1  UNL1        0.0018
     25 C         143.3587  142.7510  158.3258 C.3     1  UNL1        0.0018
@<TRIPOS>BOND
     1     1     2    2
     2     2     3    1
     3     3     4   ar
     4     4     5   ar
     5     5     6   ar
     6     6     7   ar
     7     7     8   ar
     8     8     9   ar
     9     9    15    1
    10    15    16   ar
    11    16    17   ar
    12    17    18   ar
    13    18    19   ar
    14    19    20    1
    15    19    21   ar
    16     9    10   ar
    17    10    11   ar
    18    11    12    1
    19    12    13    1
    20    13    14    1
    21    14    22    1
    22    22    23    1
    23    23    24    1
    24    24    25    1
    25    14     2   am
    26    25    23    1
    27    11     3   ar
    28    10     5   ar
    29    21    15   ar
@<TRIPOS>MOLECULE
*****
 25 29 0 0 0
SMALL
GASTEIGER

@<TRIPOS>ATOM
      1 O         140.8238  141.5910  161.2271 O.2     1  UNL1       -0.2666
      2 C         140.5518  141.7948  162.6881 C.2     1  UNL1        0.2834
      3 C         141.2735  140.9652  163.7083 C.ar    1  UNL1        0.1985
      4 N         142.2996  139.8792  163.5751 N.ar    1  UNL1       -0.2227
      5 C         142.6616  139.4118  164.9536 C.ar    1  UNL1        0.0988
      6 C         143.6182  138.3634  165.4391 C.ar    1  UNL1        0.0206
      7 C         143.7725  138.1121  166.9098 C.ar    1  UNL1        0.0016
      8 C         142.9702  138.9093  167.8951 C.ar    1  UNL1        0.0015
      9 C         142.0136  139.9577  167.4096 C.ar    1  UNL1        0.0174
     10 C         141.8593  140.2090  165.9389 C.ar    1  UNL1        0.0790
     11 N         141.0014  141.1690  165.1693 N.ar    1  UNL1       -0.3060
     12 C         140.0076  142.2025  165.6100 C.3     1  UNL1        0.1291
     13 C         139.2859  143.0321  164.5898 C.3     1  UNL1        0.1183
     14 N         139.5580  142.8283  163.1288 N.am    1  UNL1       -0.2716
     15 C         141.2113  140.7549  168.3949 C.ar    1  UNL1        0.0037
     16 C         139.9809  140.1617  169.0148 C.ar    1  UNL1        0.0002
     17 C         139.1786  140.9589  170.0001 C.ar    1  UNL1        0.0023
     18 C         139.6067  142.3493  170.3655 C.ar    1  UNL1        0.0296
     19 C         140.8371  142.9424  169.7457 C.ar    1  UNL1        0.1401
     20 F         141.2652  144.3329  170.1111 F       1  UNL1       -0.2042
     21 C         141.6394  142.1453  168.7604 C.ar    1  UNL1        0.0297
     22 C         138.8362  143.6579  162.1086 C.3     1  UNL1        0.0938
     23 C         139.4399  144.9424  161.6234 C.3     1  UNL1        0.0199
     24 C         140.0443  145.7582  160.5192 C.3     1  UNL1        0.0018
     25 C         139.8813  146.3516  161.8871 C.3     1  UNL1        0.0018
@<TRIPOS>BOND
     1     1     2    2
     2     2     3    1
     3     3     4   ar
     4     4     5   ar
     5     5     6   ar
     6     6     7   ar
     7     7     8   ar
     8     8     9   ar
     9     9    15    1
    10    15    16   ar
    11    16    17   ar
    12    17    18   ar
    13    18    19   ar
    14    19    20    1
    15    19    21   ar
    16     9    10   ar
    17    10    11   ar
    18    11    12    1
    19    12    13    1
    20    13    14    1
    21    14    22    1
    22    22    23    1
    23    23    24    1
    24    24    25    1
    25    14     2   am
    26    25    23    1
    27    11     3   ar
    28    10     5   ar
    29    21    15   ar
@<TRIPOS>MOLECULE
*****
 25 29 0 0 0
SMALL
GASTEIGER

@<TRIPOS>ATOM
      1 O         142.0989  139.0593  161.5875 O.2     1  UNL1       -0.2666
      2 C         142.2880  139.7160  162.9228 C.2     1  UNL1        0.2834
      3 C         141.2718  139.5154  164.0079 C.ar    1  UNL1        0.1985
      4 N         139.9937  138.7317  164.0536 N.ar    1  UNL1       -0.2227
      5 C         139.3928  138.9039  165.4172 C.ar    1  UNL1        0.0988
      6 C         138.1372  138.3652  166.0361 C.ar    1  UNL1        0.0206
      7 C         137.7883  138.7166  167.4519 C.ar    1  UNL1        0.0016
      8 C         138.6952  139.6068  168.2489 C.ar    1  UNL1        0.0015
      9 C         139.9508  140.1456  167.6301 C.ar    1  UNL1        0.0174
     10 C         140.2997  139.7941  166.2142 C.ar    1  UNL1        0.0790
     11 N         141.4609  140.1720  165.3432 N.ar    1  UNL1       -0.3060
     12 C         142.6661  141.0292  165.5935 C.3     1  UNL1        0.1291
     13 C         143.6823  141.2298  164.5084 C.3     1  UNL1        0.1183
     14 N         143.4932  140.5732  163.1731 N.am    1  UNL1       -0.2716
     15 C         140.8577  141.0357  168.4271 C.ar    1  UNL1        0.0037
     16 C         142.2271  140.5599  168.8119 C.ar    1  UNL1        0.0002
     17 C         143.1339  141.4501  169.6089 C.ar    1  UNL1        0.0023
     18 C         142.6713  142.8161  170.0211 C.ar    1  UNL1        0.0296
     19 C         141.3019  143.2920  169.6363 C.ar    1  UNL1        0.1401
     20 F         140.8392  144.6580  170.0484 F       1  UNL1       -0.2042
     21 C         140.3950  142.4018  168.8393 C.ar    1  UNL1        0.0297
     22 C         144.5093  140.7737  162.0880 C.3     1  UNL1        0.0938
     23 C         144.2888  141.8226  161.0387 C.3     1  UNL1        0.0199
     24 C         144.5388  142.3507  159.6571 C.3     1  UNL1        0.0018
     25 C         143.6570  143.1113  160.6026 C.3     1  UNL1        0.0018
@<TRIPOS>BOND
     1     1     2    2
     2     2     3    1
     3     3     4   ar
     4     4     5   ar
     5     5     6   ar
     6     6     7   ar
     7     7     8   ar
     8     8     9   ar
     9     9    15    1
    10    15    16   ar
    11    16    17   ar
    12    17    18   ar
    13    18    19   ar
    14    19    20    1
    15    19    21   ar
    16     9    10   ar
    17    10    11   ar
    18    11    12    1
    19    12    13    1
    20    13    14    1
    21    14    22    1
    22    22    23    1
    23    23    24    1
    24    24    25    1
    25    14     2   am
    26    25    23    1
    27    11     3   ar
    28    10     5   ar
    29    21    15   ar
@<TRIPOS>MOLECULE
*****
 25 29 0 0 0
SMALL
GASTEIGER

@<TRIPOS>ATOM
      1 O         144.1836  144.7355  162.5240 O.2     1  UNL1       -0.2666
      2 C         143.3085  143.5490  162.8006 C.2     1  UNL1        0.2834
      3 C         143.1892  143.0143  164.1970 C.ar    1  UNL1        0.1985
      4 N         143.8091  143.4452  165.4932 N.ar    1  UNL1       -0.2227
      5 C         143.3172  142.5251  166.5708 C.ar    1  UNL1        0.0988
      6 C         143.5913  142.4683  168.0445 C.ar    1  UNL1        0.0206
      7 C         142.9413  141.4119  168.8880 C.ar    1  UNL1        0.0016
      8 C         142.0173  140.4123  168.2579 C.ar    1  UNL1        0.0015
      9 C         141.7432  140.4691  166.7842 C.ar    1  UNL1        0.0174
     10 C         142.3932  141.5255  165.9407 C.ar    1  UNL1        0.0790
     11 N         142.3141  141.8279  164.4736 N.ar    1  UNL1       -0.3060
     12 C         141.5582  141.1762  163.3539 C.3     1  UNL1        0.1291
     13 C         141.6775  141.7109  161.9575 C.3     1  UNL1        0.1183
     14 N         142.5526  142.8973  161.6809 N.am    1  UNL1       -0.2716
     15 C         140.8192  139.4696  166.1541 C.ar    1  UNL1        0.0037
     16 C         139.3406  139.5635  166.3881 C.ar    1  UNL1        0.0002
     17 C         138.4166  138.5639  165.7580 C.ar    1  UNL1        0.0023
     18 C         138.9712  137.4704  164.8939 C.ar    1  UNL1        0.0296
     19 C         140.4498  137.3765  164.6600 C.ar    1  UNL1        0.1401
     20 F         141.0045  136.2829  163.7959 F       1  UNL1       -0.2042
     21 C         141.3738  138.3761  165.2901 C.ar    1  UNL1        0.0297
     22 C         142.6719  143.4320  160.2845 C.3     1  UNL1        0.0938
     23 C         141.7021  144.4647  159.7914 C.3     1  UNL1        0.0199
     24 C         140.4775  145.3039  160.0058 C.3     1  UNL1        0.0018
     25 C         141.2470  145.4141  158.7230 C.3     1  UNL1        0.0018
@<TRIPOS>BOND
     1     1     2    2
     2     2     3    1
     3     3     4   ar
     4     4     5   ar
     5     5     6   ar
     6     6     7   ar
     7     7     8   ar
     8     8     9   ar
     9     9    15    1
    10    15    16   ar
    11    16    17   ar
    12    17    18   ar
    13    18    19   ar
    14    19    20    1
    15    19    21   ar
    16     9    10   ar
    17    10    11   ar
    18    11    12    1
    19    12    13    1
    20    13    14    1
    21    14    22    1
    22    22    23    1
    23    23    24    1
    24    24    25    1
    25    14     2   am
    26    25    23    1
    27    11     3   ar
    28    10     5   ar
    29    21    15   ar
@<TRIPOS>MOLECULE
*****
 25 29 0 0 0
SMALL
GASTEIGER

@<TRIPOS>ATOM
      1 O         140.3836  141.3562  161.4463 O.2     1  UNL1       -0.2666
      2 C         140.7895  141.7470  162.8364 C.2     1  UNL1        0.2834
      3 C         140.1438  141.0884  164.0194 C.ar    1  UNL1        0.1985
      4 N         139.0865  140.0298  164.1256 N.ar    1  UNL1       -0.2227
      5 C         138.8389  139.7663  165.5814 C.ar    1  UNL1        0.0988
      6 C         137.9068  138.8265  166.2869 C.ar    1  UNL1        0.0206
      7 C         137.8791  138.7824  167.7860 C.ar    1  UNL1        0.0016
      8 C         138.7835  139.6782  168.5795 C.ar    1  UNL1        0.0015
      9 C         139.7156  140.6180  167.8740 C.ar    1  UNL1        0.0174
     10 C         139.7433  140.6621  166.3749 C.ar    1  UNL1        0.0790
     11 N         140.5498  141.4792  165.4095 N.ar    1  UNL1       -0.3060
     12 C         141.6013  142.5285  165.6167 C.3     1  UNL1        0.1291
     13 C         142.2470  143.1871  164.4337 C.3     1  UNL1        0.1183
     14 N         141.8411  142.7964  163.0436 N.am    1  UNL1       -0.2716
     15 C         140.6199  141.5138  168.6675 C.ar    1  UNL1        0.0037
     16 C         140.1428  142.8687  169.0995 C.ar    1  UNL1        0.0002
     17 C         141.0472  143.7644  169.8931 C.ar    1  UNL1        0.0023
     18 C         142.4287  143.3054  170.2545 C.ar    1  UNL1        0.0296
     19 C         142.9058  141.9506  169.8224 C.ar    1  UNL1        0.1401
     20 F         144.2874  141.4914  170.1839 F       1  UNL1       -0.2042
     21 C         142.0014  141.0548  169.0289 C.ar    1  UNL1        0.0297
     22 C         142.4868  143.4550  161.8606 C.3     1  UNL1        0.0938
     23 C         141.6927  144.3888  160.9961 C.3     1  UNL1        0.0199
     24 C         141.3669  144.9443  159.6414 C.3     1  UNL1        0.0018
     25 C         140.6432  145.4510  160.8536 C.3     1  UNL1        0.0018
@<TRIPOS>BOND
     1     1     2    2
     2     2     3    1
     3     3     4   ar
     4     4     5   ar
     5     5     6   ar
     6     6     7   ar
     7     7     8   ar
     8     8     9   ar
     9     9    15    1
    10    15    16   ar
    11    16    17   ar
    12    17    18   ar
    13    18    19   ar
    14    19    20    1
    15    19    21   ar
    16     9    10   ar
    17    10    11   ar
    18    11    12    1
    19    12    13    1
    20    13    14    1
    21    14    22    1
    22    22    23    1
    23    23    24    1
    24    24    25    1
    25    14     2   am
    26    25    23    1
    27    11     3   ar
    28    10     5   ar
    29    21    15   ar
@<TRIPOS>MOLECULE
*****
 25 29 0 0 0
SMALL
GASTEIGER

@<TRIPOS>ATOM
      1 O         138.6472  139.2656  157.4604 O.2     1  UNL1       -0.2666
      2 C         138.7183  140.2667  158.5752 C.2     1  UNL1        0.2834
      3 C         138.7804  139.8000  159.9995 C.ar    1  UNL1        0.1985
      4 N         138.7874  138.4285  160.6069 N.ar    1  UNL1       -0.2227
      5 C         138.8630  138.5819  162.0971 C.ar    1  UNL1        0.0988
      6 C         138.9008  137.5759  163.2090 C.ar    1  UNL1        0.0206
      7 C         138.9782  138.0361  164.6345 C.ar    1  UNL1        0.0016
      8 C         139.0178  139.5025  164.9481 C.ar    1  UNL1        0.0015
      9 C         138.9800  140.5085  163.8362 C.ar    1  UNL1        0.0174
     10 C         138.9025  140.0482  162.4107 C.ar    1  UNL1        0.0790
     11 N         138.8515  140.8010  161.1143 N.ar    1  UNL1       -0.3060
     12 C         138.8606  142.2687  160.8049 C.3     1  UNL1        0.1291
     13 C         138.7986  142.7354  159.3807 C.3     1  UNL1        0.1183
     14 N         138.7274  141.7344  158.2658 N.am    1  UNL1       -0.2716
     15 C         139.0195  141.9748  164.1498 C.ar    1  UNL1        0.0037
     16 C         137.7527  142.7044  164.4856 C.ar    1  UNL1        0.0002
     17 C         137.7923  144.1708  164.7992 C.ar    1  UNL1        0.0023
     18 C         139.0987  144.9075  164.7770 C.ar    1  UNL1        0.0296
     19 C         140.3655  144.1778  164.4412 C.ar    1  UNL1        0.1401
     20 F         141.6720  144.9146  164.4190 F       1  UNL1       -0.2042
     21 C         140.3259  142.7115  164.1276 C.ar    1  UNL1        0.0297
     22 C         138.6654  142.2010  156.8416 C.3     1  UNL1        0.0938
     23 C         137.3504  142.2377  156.1210 C.3     1  UNL1        0.0199
     24 C         136.0560  141.5791  155.7455 C.3     1  UNL1        0.0018
     25 C         136.3670  142.9597  155.2482 C.3     1  UNL1        0.0018
@<TRIPOS>BOND
     1     1     2    2
     2     2     3    1
     3     3     4   ar
     4     4     5   ar
     5     5     6   ar
     6     6     7   ar
     7     7     8   ar
     8     8     9   ar
     9     9    15    1
    10    15    16   ar
    11    16    17   ar
    12    17    18   ar
    13    18    19   ar
    14    19    20    1
    15    19    21   ar
    16     9    10   ar
    17    10    11   ar
    18    11    12    1
    19    12    13    1
    20    13    14    1
    21    14    22    1
    22    22    23    1
    23    23    24    1
    24    24    25    1
    25    14     2   am
    26    25    23    1
    27    11     3   ar
    28    10     5   ar
    29    21    15   ar
@<TRIPOS>MOLECULE
*****
 25 29 0 0 0
SMALL
GASTEIGER

@<TRIPOS>ATOM
      1 O         138.3005  137.2847  162.8399 O.2     1  UNL1       -0.2666
      2 C         139.1706  138.5047  162.9050 C.2     1  UNL1        0.2834
      3 C         139.4353  139.1678  164.2242 C.ar    1  UNL1        0.1985
      4 N         138.9793  138.8490  165.6172 N.ar    1  UNL1       -0.2227
      5 C         139.5676  139.8720  166.5431 C.ar    1  UNL1        0.0988
      6 C         139.4629  140.0603  168.0275 C.ar    1  UNL1        0.0206
      7 C         140.1778  141.1998  168.6911 C.ar    1  UNL1        0.0016
      8 C         140.9974  142.1509  167.8704 C.ar    1  UNL1        0.0015
      9 C         141.1021  141.9626  166.3860 C.ar    1  UNL1        0.0174
     10 C         140.3872  140.8231  165.7223 C.ar    1  UNL1        0.0790
     11 N         140.3054  140.3879  164.2892 N.ar    1  UNL1       -0.3060
     12 C         140.9109  140.9449  163.0350 C.3     1  UNL1        0.1291
     13 C         140.6462  140.2819  161.7157 C.3     1  UNL1        0.1183
     14 N         139.7760  139.0618  161.6507 N.am    1  UNL1       -0.2716
     15 C         141.9217  142.9137  165.5652 C.ar    1  UNL1        0.0037
     16 C         143.4191  142.8290  165.5917 C.ar    1  UNL1        0.0002
     17 C         144.2387  143.7801  164.7709 C.ar    1  UNL1        0.0023
     18 C         143.5609  144.8159  163.9237 C.ar    1  UNL1        0.0296
     19 C         142.0636  144.9006  163.8973 C.ar    1  UNL1        0.1401
     20 F         141.3858  145.9364  163.0500 F       1  UNL1       -0.2042
     21 C         141.2440  143.9495  164.7180 C.ar    1  UNL1        0.0297
     22 C         139.5113  138.3988  160.3315 C.3     1  UNL1        0.0938
     23 C         139.2790  139.2324  159.1063 C.3     1  UNL1        0.0199
     24 C         138.4971  140.2883  158.3826 C.3     1  UNL1        0.0018
     25 C         139.6586  139.6205  157.7080 C.3     1  UNL1        0.0018
@<TRIPOS>BOND
     1     1     2    2
     2     2     3    1
     3     3     4   ar
     4     4     5   ar
     5     5     6   ar
     6     6     7   ar
     7     7     8   ar
     8     8     9   ar
     9     9    15    1
    10    15    16   ar
    11    16    17   ar
    12    17    18   ar
    13    18    19   ar
    14    19    20    1
    15    19    21   ar
    16     9    10   ar
    17    10    11   ar
    18    11    12    1
    19    12    13    1
    20    13    14    1
    21    14    22    1
    22    22    23    1
    23    23    24    1
    24    24    25    1
    25    14     2   am
    26    25    23    1
    27    11     3   ar
    28    10     5   ar
    29    21    15   ar
@<TRIPOS>MOLECULE
*****
 25 29 0 0 0
SMALL
GASTEIGER

@<TRIPOS>ATOM
      1 O         143.7630  138.1589  167.2511 O.2     1  UNL1       -0.2666
      2 C         142.7981  139.1810  166.7275 C.2     1  UNL1        0.2834
      3 C         142.3348  139.1142  165.3024 C.ar    1  UNL1        0.1985
      4 N         142.6540  138.1638  164.1867 N.ar    1  UNL1       -0.2227
      5 C         141.8864  138.5984  162.9735 C.ar    1  UNL1        0.0988
      6 C         141.8075  138.0417  161.5829 C.ar    1  UNL1        0.0206
      7 C         140.9351  138.7040  160.5582 C.ar    1  UNL1        0.0016
      8 C         140.1414  139.9231  160.9241 C.ar    1  UNL1        0.0015
      9 C         140.2203  140.4799  162.3147 C.ar    1  UNL1        0.0174
     10 C         141.0928  139.8176  163.3394 C.ar    1  UNL1        0.0790
     11 N         141.3699  140.1363  164.7787 N.ar    1  UNL1       -0.3060
     12 C         140.8683  141.2253  165.6801 C.3     1  UNL1        0.1291
     13 C         141.3317  141.2921  167.1052 C.3     1  UNL1        0.1183
     14 N         142.2966  140.2700  167.6289 N.am    1  UNL1       -0.2716
     15 C         139.4267  141.6991  162.6806 C.ar    1  UNL1        0.0037
     16 C         138.1072  141.5533  163.3788 C.ar    1  UNL1        0.0002
     17 C         137.3135  142.7725  163.7447 C.ar    1  UNL1        0.0023
     18 C         137.8394  144.1373  163.4123 C.ar    1  UNL1        0.0296
     19 C         139.1590  144.2831  162.7141 C.ar    1  UNL1        0.1401
     20 F         139.6849  145.6480  162.3817 F       1  UNL1       -0.2042
     21 C         139.9526  143.0639  162.3482 C.ar    1  UNL1        0.0297
     22 C         142.7599  140.3368  169.0540 C.3     1  UNL1        0.0938
     23 C         143.2024  141.6456  169.6382 C.3     1  UNL1        0.0199
     24 C         142.8780  142.9304  170.3410 C.3     1  UNL1        0.0018
     25 C         144.2933  142.6276  169.9472 C.3     1  UNL1        0.0018
@<TRIPOS>BOND
     1     1     2    2
     2     2     3    1
     3     3     4   ar
     4     4     5   ar
     5     5     6   ar
     6     6     7   ar
     7     7     8   ar
     8     8     9   ar
     9     9    15    1
    10    15    16   ar
    11    16    17   ar
    12    17    18   ar
    13    18    19   ar
    14    19    20    1
    15    19    21   ar
    16     9    10   ar
    17    10    11   ar
    18    11    12    1
    19    12    13    1
    20    13    14    1
    21    14    22    1
    22    22    23    1
    23    23    24    1
    24    24    25    1
    25    14     2   am
    26    25    23    1
    27    11     3   ar
    28    10     5   ar
    29    21    15   ar
