@<TRIPOS>MOLECULE
*****
 16 17 0 0 0
SMALL
GASTEIGER

@<TRIPOS>ATOM
      1 F         143.1880  143.7995  170.9675 F       1  UNL1       -0.2033
      2 C         142.5456  142.8275  170.0228 C.ar    1  UNL1        0.1506
      3 C         143.2890  141.5983  169.5911 C.ar    1  UNL1        0.0302
      4 C         142.6466  140.6263  168.6463 C.ar    1  UNL1       -0.0019
      5 C         141.2607  140.8836  168.1333 C.ar    1  UNL1       -0.0199
      6 C         140.5173  142.1128  168.5650 C.ar    1  UNL1        0.0094
      7 C         141.1597  143.0848  169.5097 C.ar    1  UNL1        0.0847
      8 CL        140.4163  144.3140  169.9414 Cl      1  UNL1       -0.0799
      9 C         140.6182  139.9116  167.1885 C.3     1  UNL1        0.0424
     10 C         139.1418  139.7125  167.3642 C.3     1  UNL1        0.0315
     11 C         138.2196  138.8199  166.5877 C.2     1  UNL1       -0.0289
     12 C         138.5460  137.9061  165.4440 C.2     1  UNL1       -0.0136
     13 C         139.8751  137.6590  164.7941 C.3     1  UNL1        0.0950
     14 N         141.2062  138.2648  165.1275 N.3     1  UNL1       -0.2935
     15 C         141.5369  139.2674  166.1932 C.3     1  UNL1        0.0735
     16 H         141.5114  138.7047  164.2593 H       1  UNL1        0.1236
@<TRIPOS>BOND
     1     1     2    1
     2     2     3   ar
     3     3     4   ar
     4     4     5   ar
     5     5     9    1
     6     9    10    1
     7    10    11    1
     8    11    12    2
     9    12    13    1
    10    13    14    1
    11    14    15    1
    12     5     6   ar
    13     6     7   ar
    14     7     8    1
    15     7     2   ar
    16    15     9    1
    17    14    16    1
@<TRIPOS>MOLECULE
*****
 16 17 0 0 0
SMALL
GASTEIGER

@<TRIPOS>ATOM
      1 F         138.6010  141.3896  170.3320 F       1  UNL1       -0.2033
      2 C         139.6847  141.3418  169.2960 C.ar    1  UNL1        0.1506
      3 C         139.8816  140.1031  168.4732 C.ar    1  UNL1        0.0302
      4 C         140.9653  140.0553  167.4372 C.ar    1  UNL1       -0.0019
      5 C         141.8521  141.2462  167.2240 C.ar    1  UNL1       -0.0199
      6 C         141.6552  142.4848  168.0467 C.ar    1  UNL1        0.0094
      7 C         140.5715  142.5327  169.0828 C.ar    1  UNL1        0.0847
      8 CL        140.3746  143.7713  169.9056 Cl      1  UNL1       -0.0799
      9 C         142.9358  141.1984  166.1879 C.3     1  UNL1        0.0424
     10 C         143.2711  139.8352  165.6593 C.3     1  UNL1        0.0315
     11 C         144.2944  139.4571  164.6297 C.2     1  UNL1       -0.0289
     12 C         145.2349  140.3487  163.8745 C.2     1  UNL1       -0.0136
     13 C         145.3846  141.8386  163.9623 C.3     1  UNL1        0.0950
     14 N         144.6306  142.8049  164.8270 N.3     1  UNL1       -0.2935
     15 C         143.5408  142.5200  165.8175 C.3     1  UNL1        0.0735
     16 H         144.2128  143.4637  164.1698 H       1  UNL1        0.1236
@<TRIPOS>BOND
     1     1     2    1
     2     2     3   ar
     3     3     4   ar
     4     4     5   ar
     5     5     9    1
     6     9    10    1
     7    10    11    1
     8    11    12    2
     9    12    13    1
    10    13    14    1
    11    14    15    1
    12     5     6   ar
    13     6     7   ar
    14     7     8    1
    15     7     2   ar
    16    15     9    1
    17    14    16    1
@<TRIPOS>MOLECULE
*****
 16 17 0 0 0
SMALL
GASTEIGER

@<TRIPOS>ATOM
      1 F         143.9996  142.1113  169.9309 F       1  UNL1       -0.2033
      2 C         142.9522  142.2678  168.8687 C.ar    1  UNL1        0.1506
      3 C         143.3410  142.2293  167.4205 C.ar    1  UNL1        0.0302
      4 C         142.2935  142.3858  166.3582 C.ar    1  UNL1       -0.0019
      5 C         140.8572  142.5807  166.7442 C.ar    1  UNL1       -0.0199
      6 C         140.4683  142.6192  168.1924 C.ar    1  UNL1        0.0094
      7 C         141.5158  142.4627  169.2547 C.ar    1  UNL1        0.0847
      8 CL        141.1269  142.5012  170.7029 Cl      1  UNL1       -0.0799
      9 C         139.8097  142.7372  165.6820 C.3     1  UNL1        0.0424
     10 C         139.6927  144.1062  165.0801 C.3     1  UNL1        0.0315
     11 C         138.7548  144.5801  164.0096 C.2     1  UNL1       -0.0289
     12 C         137.7023  143.8021  163.2769 C.2     1  UNL1       -0.0136
     13 C         137.3277  142.3581  163.4335 C.3     1  UNL1        0.0950
     14 N         137.9131  141.3354  164.3616 N.3     1  UNL1       -0.2935
     15 C         139.0177  141.5042  165.3623 C.3     1  UNL1        0.0735
     16 H         138.2369  140.5884  163.7471 H       1  UNL1        0.1236
@<TRIPOS>BOND
     1     1     2    1
     2     2     3   ar
     3     3     4   ar
     4     4     5   ar
     5     5     9    1
     6     9    10    1
     7    10    11    1
     8    11    12    2
     9    12    13    1
    10    13    14    1
    11    14    15    1
    12     5     6   ar
    13     6     7   ar
    14     7     8    1
    15     7     2   ar
    16    15     9    1
    17    14    16    1
@<TRIPOS>MOLECULE
*****
 16 17 0 0 0
SMALL
GASTEIGER

@<TRIPOS>ATOM
      1 F         142.8392  138.7113  170.0709 F       1  UNL1       -0.2033
      2 C         142.0105  139.3993  169.0270 C.ar    1  UNL1        0.1506
      3 C         142.5046  139.4845  167.6133 C.ar    1  UNL1        0.0302
      4 C         141.6759  140.1726  166.5693 C.ar    1  UNL1       -0.0019
      5 C         140.3531  140.7755  166.9391 C.ar    1  UNL1       -0.0199
      6 C         139.8590  140.6903  168.3528 C.ar    1  UNL1        0.0094
      7 C         140.6877  140.0022  169.3968 C.ar    1  UNL1        0.0847
      8 CL        140.1936  139.9171  170.8105 Cl      1  UNL1       -0.0799
      9 C         139.5244  141.4635  165.8952 C.3     1  UNL1        0.0424
     10 C         139.7820  142.9313  165.7231 C.3     1  UNL1        0.0315
     11 C         139.1264  143.8909  164.7746 C.2     1  UNL1       -0.0289
     12 C         138.0515  143.6199  163.7643 C.2     1  UNL1       -0.0136
     13 C         137.3665  142.3223  163.4526 C.3     1  UNL1        0.0950
     14 N         137.5874  140.9752  164.0744 N.3     1  UNL1       -0.2935
     15 C         138.5477  140.5931  165.1615 C.3     1  UNL1        0.0735
     16 H         137.8335  140.3696  163.2915 H       1  UNL1        0.1236
@<TRIPOS>BOND
     1     1     2    1
     2     2     3   ar
     3     3     4   ar
     4     4     5   ar
     5     5     9    1
     6     9    10    1
     7    10    11    1
     8    11    12    2
     9    12    13    1
    10    13    14    1
    11    14    15    1
    12     5     6   ar
    13     6     7   ar
    14     7     8    1
    15     7     2   ar
    16    15     9    1
    17    14    16    1
@<TRIPOS>MOLECULE
*****
 16 17 0 0 0
SMALL
GASTEIGER

@<TRIPOS>ATOM
      1 F         138.3263  140.1678  169.9803 F       1  UNL1       -0.2033
      2 C         139.4567  140.3540  169.0121 C.ar    1  UNL1        0.1506
      3 C         140.6675  141.1422  169.4153 C.ar    1  UNL1        0.0302
      4 C         141.7980  141.3283  168.4470 C.ar    1  UNL1       -0.0019
      5 C         141.7176  140.7263  167.0756 C.ar    1  UNL1       -0.0199
      6 C         140.5068  139.9381  166.6723 C.ar    1  UNL1        0.0094
      7 C         139.3763  139.7519  167.6405 C.ar    1  UNL1        0.0847
      8 CL        138.1655  138.9636  167.2372 Cl      1  UNL1       -0.0799
      9 C         142.8479  140.9124  166.1073 C.3     1  UNL1        0.0424
     10 C         143.4035  139.6553  165.5061 C.3     1  UNL1        0.0315
     11 C         144.5217  139.5064  164.5173 C.2     1  UNL1       -0.0289
     12 C         145.3603  140.5775  163.8856 C.2     1  UNL1       -0.0136
     13 C         145.2881  142.0622  164.0865 C.3     1  UNL1        0.0950
     14 N         144.3593  142.8425  164.9688 N.3     1  UNL1       -0.2935
     15 C         143.2733  142.3307  165.8681 C.3     1  UNL1        0.0735
     16 H         143.8844  143.4852  164.3349 H       1  UNL1        0.1236
@<TRIPOS>BOND
     1     1     2    1
     2     2     3   ar
     3     3     4   ar
     4     4     5   ar
     5     5     9    1
     6     9    10    1
     7    10    11    1
     8    11    12    2
     9    12    13    1
    10    13    14    1
    11    14    15    1
    12     5     6   ar
    13     6     7   ar
    14     7     8    1
    15     7     2   ar
    16    15     9    1
    17    14    16    1
@<TRIPOS>MOLECULE
*****
 16 17 0 0 0
SMALL
GASTEIGER

@<TRIPOS>ATOM
      1 F         138.5014  137.0965  163.9520 F       1  UNL1       -0.2033
      2 C         139.0382  138.0079  165.0155 C.ar    1  UNL1        0.1506
      3 C         138.1400  138.4847  166.1181 C.ar    1  UNL1        0.0302
      4 C         138.6769  139.3962  167.1817 C.ar    1  UNL1       -0.0019
      5 C         140.1120  139.8308  167.1425 C.ar    1  UNL1       -0.0199
      6 C         141.0103  139.3539  166.0399 C.ar    1  UNL1        0.0094
      7 C         140.4734  138.4425  164.9764 C.ar    1  UNL1        0.0847
      8 CL        141.3717  137.9657  163.8737 Cl      1  UNL1       -0.0799
      9 C         140.6490  140.7422  168.2060 C.3     1  UNL1        0.0424
     10 C         140.2508  142.1837  168.0895 C.3     1  UNL1        0.0315
     11 C         140.6185  143.3307  168.9836 C.2     1  UNL1       -0.0289
     12 C         141.4749  143.3194  170.2149 C.2     1  UNL1       -0.0136
     13 C         142.1754  142.1585  170.8564 C.3     1  UNL1        0.0950
     14 N         142.1924  140.7220  170.4248 N.3     1  UNL1       -0.2935
     15 C         141.5130  140.0917  169.2453 C.3     1  UNL1        0.0735
     16 H         141.8340  140.2090  171.2303 H       1  UNL1        0.1236
@<TRIPOS>BOND
     1     1     2    1
     2     2     3   ar
     3     3     4   ar
     4     4     5   ar
     5     5     9    1
     6     9    10    1
     7    10    11    1
     8    11    12    2
     9    12    13    1
    10    13    14    1
    11    14    15    1
    12     5     6   ar
    13     6     7   ar
    14     7     8    1
    15     7     2   ar
    16    15     9    1
    17    14    16    1
@<TRIPOS>MOLECULE
*****
 16 17 0 0 0
SMALL
GASTEIGER

@<TRIPOS>ATOM
      1 F         142.6697  138.2303  169.9268 F       1  UNL1       -0.2033
      2 C         142.6311  139.3362  168.9142 C.ar    1  UNL1        0.1506
      3 C         142.8486  139.0311  167.4617 C.ar    1  UNL1        0.0302
      4 C         142.8101  140.1371  166.4491 C.ar    1  UNL1       -0.0019
      5 C         142.5540  141.5481  166.8889 C.ar    1  UNL1       -0.0199
      6 C         142.3366  141.8532  168.3414 C.ar    1  UNL1        0.0094
      7 C         142.3751  140.7473  169.3540 C.ar    1  UNL1        0.0847
      8 CL        142.1576  141.0524  170.8065 Cl      1  UNL1       -0.0799
      9 C         142.5155  142.6541  165.8763 C.3     1  UNL1        0.0424
     10 C         143.8499  143.1575  165.4114 C.3     1  UNL1        0.0315
     11 C         144.1460  144.2416  164.4178 C.2     1  UNL1       -0.0289
     12 C         143.1810  145.0900  163.6439 C.2     1  UNL1       -0.0136
     13 C         141.6815  145.0639  163.6724 C.3     1  UNL1        0.0950
     14 N         140.7767  144.1829  164.4818 N.3     1  UNL1       -0.2935
     15 C         141.1479  143.1105  165.4626 C.3     1  UNL1        0.0735
     16 H         140.1975  143.7071  163.7900 H       1  UNL1        0.1236
@<TRIPOS>BOND
     1     1     2    1
     2     2     3   ar
     3     3     4   ar
     4     4     5   ar
     5     5     9    1
     6     9    10    1
     7    10    11    1
     8    11    12    2
     9    12    13    1
    10    13    14    1
    11    14    15    1
    12     5     6   ar
    13     6     7   ar
    14     7     8    1
    15     7     2   ar
    16    15     9    1
    17    14    16    1
@<TRIPOS>MOLECULE
*****
 16 17 0 0 0
SMALL
GASTEIGER

@<TRIPOS>ATOM
      1 F         140.8162  142.8418  170.0976 F       1  UNL1       -0.2033
      2 C         140.3943  142.1276  168.8479 C.ar    1  UNL1        0.1506
      3 C         140.5354  142.8013  167.5152 C.ar    1  UNL1        0.0302
      4 C         140.1134  142.0870  166.2654 C.ar    1  UNL1       -0.0019
      5 C         139.5506  140.6991  166.3484 C.ar    1  UNL1       -0.0199
      6 C         139.4095  140.0255  167.6812 C.ar    1  UNL1        0.0094
      7 C         139.8314  140.7397  168.9310 C.ar    1  UNL1        0.0847
      8 CL        139.6904  140.0660  170.2637 Cl      1  UNL1       -0.0799
      9 C         139.1286  139.9848  165.0987 C.3     1  UNL1        0.0424
     10 C         139.6858  138.6037  164.9189 C.3     1  UNL1        0.0315
     11 C         139.4572  137.6427  163.7900 C.2     1  UNL1       -0.0289
     12 C         138.6153  137.8255  162.5622 C.2     1  UNL1       -0.0136
     13 C         137.7938  139.0143  162.1599 C.3     1  UNL1        0.0950
     14 N         137.6114  140.3141  162.8862 N.3     1  UNL1       -0.2935
     15 C         138.2055  140.7459  164.1941 C.3     1  UNL1        0.0735
     16 H         136.6039  140.3895  163.0259 H       1  UNL1        0.1236
@<TRIPOS>BOND
     1     1     2    1
     2     2     3   ar
     3     3     4   ar
     4     4     5   ar
     5     5     9    1
     6     9    10    1
     7    10    11    1
     8    11    12    2
     9    12    13    1
    10    13    14    1
    11    14    15    1
    12     5     6   ar
    13     6     7   ar
    14     7     8    1
    15     7     2   ar
    16    15     9    1
    17    14    16    1
@<TRIPOS>MOLECULE
*****
 16 17 0 0 0
SMALL
GASTEIGER

@<TRIPOS>ATOM
      1 F         137.0118  141.6709  162.9338 F       1  UNL1       -0.2033
      2 C         137.9621  141.7954  164.0876 C.ar    1  UNL1        0.1506
      3 C         138.3156  140.5863  164.9019 C.ar    1  UNL1        0.0302
      4 C         139.2661  140.7109  166.0558 C.ar    1  UNL1       -0.0019
      5 C         139.8629  142.0445  166.3952 C.ar    1  UNL1       -0.0199
      6 C         139.5093  143.2535  165.5809 C.ar    1  UNL1        0.0094
      7 C         138.5589  143.1291  164.4271 C.ar    1  UNL1        0.0847
      8 CL        138.2054  144.3381  163.6128 Cl      1  UNL1       -0.0799
      9 C         140.8132  142.1691  167.5490 C.3     1  UNL1        0.0424
     10 C         140.4275  143.1616  168.6056 C.3     1  UNL1        0.0315
     11 C         141.1570  143.5149  169.8678 C.2     1  UNL1       -0.0289
     12 C         142.4521  142.9630  170.3852 C.2     1  UNL1       -0.0136
     13 C         143.3379  141.9215  169.7682 C.3     1  UNL1        0.0950
     14 N         143.1472  141.1746  168.4814 N.3     1  UNL1       -0.2935
     15 C         142.0235  141.2849  167.4938 C.3     1  UNL1        0.0735
     16 H         143.1529  140.1916  168.7533 H       1  UNL1        0.1236
@<TRIPOS>BOND
     1     1     2    1
     2     2     3   ar
     3     3     4   ar
     4     4     5   ar
     5     5     9    1
     6     9    10    1
     7    10    11    1
     8    11    12    2
     9    12    13    1
    10    13    14    1
    11    14    15    1
    12     5     6   ar
    13     6     7   ar
    14     7     8    1
    15     7     2   ar
    16    15     9    1
    17    14    16    1
