@<TRIPOS>MOLECULE
*****
 36 40 0 0 0
SMALL
GASTEIGER

@<TRIPOS>ATOM
      1 N         140.3084  143.6055  162.6013 N.3     1  UNL1       -0.2750
      2 C         141.5167  142.8236  163.0236 C.3     1  UNL1        0.0737
      3 C         141.4855  142.0209  164.2903 C.3     1  UNL1        0.0374
      4 C         140.2459  142.0001  165.1347 C.3     1  UNL1        0.0800
      5 C         139.0376  142.7820  164.7124 C.3     1  UNL1        0.0374
      6 C         139.0688  143.5848  163.4457 C.3     1  UNL1        0.0737
      7 C         140.5848  145.4958  162.3382 C.3     1  UNL1        0.0161
      8 C         140.3395  144.4083  161.3345 C.3     1  UNL1        0.0487
      9 C         140.0835  143.0421  160.7708 C.3     1  UNL1        0.0362
     10 C         139.9438  142.8563  159.2889 C.3     1  UNL1        0.0951
     11 N         140.0602  144.0368  158.3708 N.am    1  UNL1       -0.2759
     12 C         139.9204  143.8510  156.8889 C.2     1  UNL1        0.2508
     13 O         140.0368  145.0313  155.9707 O.2     1  UNL1       -0.2698
     14 C         140.3162  145.4030  158.9345 C.3     1  UNL1        0.0951
     15 C         140.4559  145.5888  160.4163 C.3     1  UNL1        0.0362
     16 C         139.6644  142.4846  156.3252 C.ar    1  UNL1        0.0777
     17 C         138.2617  142.0503  156.0194 C.ar    1  UNL1        0.0820
     18 CL        137.1148  142.9821  156.2772 Cl      1  UNL1       -0.0804
     19 C         138.0057  140.6839  155.4557 C.ar    1  UNL1        0.1104
     20 N         139.1525  139.7521  155.1978 N.ar    1  UNL1       -0.2405
     21 C         140.5552  140.1865  155.5036 C.ar    1  UNL1        0.1104
     22 C         140.8113  141.5528  156.0673 C.ar    1  UNL1        0.0820
     23 CL        142.2140  141.9872  156.3731 Cl      1  UNL1       -0.0804
     24 N         140.2148  141.1973  166.4015 N.pl3   1  UNL1       -0.2872
     25 C         141.0013  141.6499  167.5958 C.ar    1  UNL1        0.0516
     26 C         140.5016  142.7879  168.4356 C.ar    1  UNL1        0.0148
     27 C         141.2882  143.2405  169.6299 C.ar    1  UNL1        0.0013
     28 C         142.5745  142.5552  169.9844 C.ar    1  UNL1        0.0001
     29 C         143.0742  141.4172  169.1447 C.ar    1  UNL1        0.0013
     30 C         142.2876  140.9645  167.9503 C.ar    1  UNL1        0.0148
     31 C         139.3970  139.9419  166.4738 C.ar    1  UNL1        0.0710
     32 C         139.4689  138.9349  165.3644 C.ar    1  UNL1        0.0180
     33 C         138.6512  137.6795  165.4368 C.ar    1  UNL1        0.0220
     34 C         137.7615  137.4311  166.6186 C.ar    1  UNL1        0.0990
     35 N         137.6895  138.4380  167.7281 N.ar    1  UNL1       -0.2410
     36 C         138.5073  139.6934  167.6557 C.ar    1  UNL1        0.1136
@<TRIPOS>BOND
     1     7     8    1
     2     8     1    1
     3     1     2    1
     4     2     3    1
     5     3     4    1
     6     4    24    1
     7    24    25    1
     8    25    26   ar
     9    26    27   ar
    10    27    28   ar
    11    28    29   ar
    12    29    30   ar
    13    24    31    1
    14    31    32   ar
    15    32    33   ar
    16    33    34   ar
    17    34    35   ar
    18    35    36   ar
    19     4     5    1
    20     5     6    1
    21     8     9    1
    22     9    10    1
    23    10    11    1
    24    11    12   am
    25    12    13    2
    26    12    16    1
    27    16    17   ar
    28    17    18    1
    29    17    19   ar
    30    19    20   ar
    31    20    21   ar
    32    21    22   ar
    33    22    23    1
    34    11    14    1
    35    14    15    1
    36    15     8    1
    37     6     1    1
    38    22    16   ar
    39    30    25   ar
    40    36    31   ar
@<TRIPOS>MOLECULE
*****
 36 40 0 0 0
SMALL
GASTEIGER

@<TRIPOS>ATOM
      1 N         140.2550  143.6121  162.4325 N.3     1  UNL1       -0.2750
      2 C         138.9535  143.1025  162.9769 C.3     1  UNL1        0.0737
      3 C         138.9385  142.2563  164.2153 C.3     1  UNL1        0.0374
      4 C         140.2249  141.9198  164.9094 C.3     1  UNL1        0.0800
      5 C         141.5264  142.4294  164.3650 C.3     1  UNL1        0.0374
      6 C         141.5414  143.2755  163.1266 C.3     1  UNL1        0.0737
      7 C         140.5326  145.5097  162.2312 C.3     1  UNL1        0.0161
      8 C         140.2700  144.4583  161.1940 C.3     1  UNL1        0.0487
      9 C         140.0022  143.1130  160.5871 C.3     1  UNL1        0.0362
     10 C         139.8407  142.9790  159.1018 C.3     1  UNL1        0.0951
     11 N         139.9470  144.1904  158.2236 N.am    1  UNL1       -0.2759
     12 C         139.7854  144.0564  156.7383 C.2     1  UNL1        0.2508
     13 O         139.8917  145.2677  155.8601 O.2     1  UNL1       -0.2698
     14 C         140.2148  145.5357  158.8305 C.3     1  UNL1        0.0951
     15 C         140.3763  145.6697  160.3158 C.3     1  UNL1        0.0362
     16 C         139.5176  142.7111  156.1314 C.ar    1  UNL1        0.0777
     17 C         138.1107  142.2965  155.8175 C.ar    1  UNL1        0.0820
     18 CL        136.9714  143.2273  156.1105 Cl      1  UNL1       -0.0804
     19 C         137.8429  140.9512  155.2105 C.ar    1  UNL1        0.1104
     20 N         138.9821  140.0204  154.9175 N.ar    1  UNL1       -0.2405
     21 C         140.3891  140.4349  155.2314 C.ar    1  UNL1        0.1104
     22 C         140.6569  141.7803  155.8384 C.ar    1  UNL1        0.0820
     23 CL        142.0638  142.1949  156.1523 Cl      1  UNL1       -0.0804
     24 N         140.2099  141.0736  166.1479 N.pl3   1  UNL1       -0.2872
     25 C         139.4469  139.7823  166.1647 C.ar    1  UNL1        0.0516
     26 C         139.7682  138.7082  165.1681 C.ar    1  UNL1        0.0148
     27 C         139.0051  137.4169  165.1850 C.ar    1  UNL1        0.0013
     28 C         137.9208  137.1996  166.1984 C.ar    1  UNL1        0.0001
     29 C         137.5995  138.2736  167.1950 C.ar    1  UNL1        0.0013
     30 C         138.3625  139.5649  167.1782 C.ar    1  UNL1        0.0148
     31 C         140.9578  141.5188  167.3695 C.ar    1  UNL1        0.0710
     32 C         140.4393  142.6613  168.1915 C.ar    1  UNL1        0.0180
     33 C         141.1873  143.1065  169.4131 C.ar    1  UNL1        0.0220
     34 C         142.4537  142.4091  169.8128 C.ar    1  UNL1        0.0990
     35 N         142.9722  141.2665  168.9908 N.ar    1  UNL1       -0.2410
     36 C         142.2243  140.8213  167.7692 C.ar    1  UNL1        0.1136
@<TRIPOS>BOND
     1     7     8    1
     2     8     1    1
     3     1     2    1
     4     2     3    1
     5     3     4    1
     6     4    24    1
     7    24    25    1
     8    25    26   ar
     9    26    27   ar
    10    27    28   ar
    11    28    29   ar
    12    29    30   ar
    13    24    31    1
    14    31    32   ar
    15    32    33   ar
    16    33    34   ar
    17    34    35   ar
    18    35    36   ar
    19     4     5    1
    20     5     6    1
    21     8     9    1
    22     9    10    1
    23    10    11    1
    24    11    12   am
    25    12    13    2
    26    12    16    1
    27    16    17   ar
    28    17    18    1
    29    17    19   ar
    30    19    20   ar
    31    20    21   ar
    32    21    22   ar
    33    22    23    1
    34    11    14    1
    35    14    15    1
    36    15     8    1
    37     6     1    1
    38    22    16   ar
    39    30    25   ar
    40    36    31   ar
@<TRIPOS>MOLECULE
*****
 36 40 0 0 0
SMALL
GASTEIGER

@<TRIPOS>ATOM
      1 N         140.1513  143.5054  162.7648 N.3     1  UNL1       -0.2750
      2 C         141.4075  142.9603  163.3769 C.3     1  UNL1        0.0737
      3 C         141.3331  142.1102  164.6105 C.3     1  UNL1        0.0374
      4 C         140.0024  141.8051  165.2319 C.3     1  UNL1        0.0800
      5 C         138.7461  142.3501  164.6198 C.3     1  UNL1        0.0374
      6 C         138.8206  143.2003  163.3862 C.3     1  UNL1        0.0737
      7 C         140.4434  145.4028  162.5829 C.3     1  UNL1        0.0161
      8 C         140.2257  144.3556  161.5312 C.3     1  UNL1        0.0487
      9 C         139.9822  143.0131  160.9080 C.3     1  UNL1        0.0362
     10 C         139.8887  142.8845  159.4165 C.3     1  UNL1        0.0951
     11 N         140.0387  144.0984  158.5481 N.am    1  UNL1       -0.2759
     12 C         139.9452  143.9698  157.0566 C.2     1  UNL1        0.2508
     13 O         140.0952  145.1836  156.1883 O.2     1  UNL1       -0.2698
     14 C         140.2822  145.4409  159.1714 C.3     1  UNL1        0.0951
     15 C         140.3757  145.5695  160.6629 C.3     1  UNL1        0.0362
     16 C         139.7017  142.6273  156.4334 C.ar    1  UNL1        0.0777
     17 C         140.8528  141.7021  156.1715 C.ar    1  UNL1        0.0820
     18 CL        142.2477  142.1192  156.5327 Cl      1  UNL1       -0.0804
     19 C         140.6093  140.3595  155.5483 C.ar    1  UNL1        0.1104
     20 N         139.2145  139.9423  155.1870 N.ar    1  UNL1       -0.2405
     21 C         138.0633  140.8675  155.4489 C.ar    1  UNL1        0.1104
     22 C         138.3068  142.2101  156.0721 C.ar    1  UNL1        0.0820
     23 CL        137.1557  143.1353  156.3341 Cl      1  UNL1       -0.0804
     24 N         139.9280  140.9549  166.4655 N.pl3   1  UNL1       -0.2872
     25 C         139.1974  139.6453  166.4309 C.ar    1  UNL1        0.0516
     26 C         138.1068  139.3684  167.4229 C.ar    1  UNL1        0.0148
     27 C         137.3762  138.0588  167.3882 C.ar    1  UNL1        0.0013
     28 C         137.7361  137.0261  166.3615 C.ar    1  UNL1        0.0001
     29 C         138.8267  137.3030  165.3695 C.ar    1  UNL1        0.0013
     30 C         139.5573  138.6126  165.4042 C.ar    1  UNL1        0.0148
     31 C         140.5842  141.4143  167.7337 C.ar    1  UNL1        0.0710
     32 C         140.3849  142.8212  168.2142 C.ar    1  UNL1        0.0180
     33 C         141.0412  143.2806  169.4824 C.ar    1  UNL1        0.0220
     34 C         141.8966  142.3332  170.2701 C.ar    1  UNL1        0.0990
     35 N         142.0959  140.9262  169.7896 N.ar    1  UNL1       -0.2410
     36 C         141.4397  140.4668  168.5214 C.ar    1  UNL1        0.1136
@<TRIPOS>BOND
     1     7     8    1
     2     8     1    1
     3     1     2    1
     4     2     3    1
     5     3     4    1
     6     4    24    1
     7    24    25    1
     8    25    26   ar
     9    26    27   ar
    10    27    28   ar
    11    28    29   ar
    12    29    30   ar
    13    24    31    1
    14    31    32   ar
    15    32    33   ar
    16    33    34   ar
    17    34    35   ar
    18    35    36   ar
    19     4     5    1
    20     5     6    1
    21     8     9    1
    22     9    10    1
    23    10    11    1
    24    11    12   am
    25    12    13    2
    26    12    16    1
    27    16    17   ar
    28    17    18    1
    29    17    19   ar
    30    19    20   ar
    31    20    21   ar
    32    21    22   ar
    33    22    23    1
    34    11    14    1
    35    14    15    1
    36    15     8    1
    37     6     1    1
    38    22    16   ar
    39    30    25   ar
    40    36    31   ar
@<TRIPOS>MOLECULE
*****
 36 40 0 0 0
SMALL
GASTEIGER

@<TRIPOS>ATOM
      1 N         140.8656  143.3763  162.6768 N.3     1  UNL1       -0.2750
      2 C         139.4947  143.1706  163.2497 C.3     1  UNL1        0.0737
      3 C         139.3262  142.4336  164.5452 C.3     1  UNL1        0.0374
      4 C         140.5285  141.9024  165.2678 C.3     1  UNL1        0.0800
      5 C         141.8994  142.1081  164.6949 C.3     1  UNL1        0.0374
      6 C         142.0680  142.8451  163.3994 C.3     1  UNL1        0.0737
      7 C         140.4117  145.1930  162.2160 C.3     1  UNL1        0.0161
      8 C         141.0343  144.1133  161.3812 C.3     1  UNL1        0.0487
      9 C         141.5982  142.7777  160.9964 C.3     1  UNL1        0.0362
     10 C         142.1146  142.5541  159.6060 C.3     1  UNL1        0.0951
     11 N         142.0670  143.6660  158.6003 N.am    1  UNL1       -0.2759
     12 C         142.5833  143.4424  157.2099 C.2     1  UNL1        0.2508
     13 O         142.5357  144.5543  156.2043 O.2     1  UNL1       -0.2698
     14 C         141.5030  145.0016  158.9851 C.3     1  UNL1        0.0951
     15 C         140.9866  145.2253  160.3756 C.3     1  UNL1        0.0362
     16 C         143.1473  142.1067  156.8251 C.ar    1  UNL1        0.0777
     17 C         142.2919  141.1131  156.0965 C.ar    1  UNL1        0.0820
     18 CL        140.8724  141.4550  155.7526 Cl      1  UNL1       -0.0804
     19 C         142.8559  139.7774  155.7117 C.ar    1  UNL1        0.1104
     20 N         144.2753  139.4355  156.0556 N.ar    1  UNL1       -0.2405
     21 C         145.1308  140.4291  156.7842 C.ar    1  UNL1        0.1104
     22 C         144.5668  141.7648  157.1690 C.ar    1  UNL1        0.0820
     23 CL        145.4222  142.7584  157.8976 Cl      1  UNL1       -0.0804
     24 N         140.3599  141.1654  166.5634 N.pl3   1  UNL1       -0.2872
     25 C         141.0902  141.6272  167.7895 C.ar    1  UNL1        0.0516
     26 C         142.3041  140.8845  168.2638 C.ar    1  UNL1        0.0148
     27 C         143.0344  141.3464  169.4900 C.ar    1  UNL1        0.0013
     28 C         142.5508  142.5509  170.2418 C.ar    1  UNL1        0.0001
     29 C         141.3369  143.2936  169.7675 C.ar    1  UNL1        0.0013
     30 C         140.6066  142.8318  168.5414 C.ar    1  UNL1        0.0148
     31 C         139.4610  139.9666  166.6328 C.ar    1  UNL1        0.0710
     32 C         139.4348  138.9823  165.5013 C.ar    1  UNL1        0.0180
     33 C         138.5359  137.7835  165.5707 C.ar    1  UNL1        0.0220
     34 C         137.6632  137.5690  166.7716 C.ar    1  UNL1        0.0990
     35 N         137.6893  138.5533  167.9033 N.ar    1  UNL1       -0.2410
     36 C         138.5883  139.7521  167.8339 C.ar    1  UNL1        0.1136
@<TRIPOS>BOND
     1     7     8    1
     2     8     1    1
     3     1     2    1
     4     2     3    1
     5     3     4    1
     6     4    24    1
     7    24    25    1
     8    25    26   ar
     9    26    27   ar
    10    27    28   ar
    11    28    29   ar
    12    29    30   ar
    13    24    31    1
    14    31    32   ar
    15    32    33   ar
    16    33    34   ar
    17    34    35   ar
    18    35    36   ar
    19     4     5    1
    20     5     6    1
    21     8     9    1
    22     9    10    1
    23    10    11    1
    24    11    12   am
    25    12    13    2
    26    12    16    1
    27    16    17   ar
    28    17    18    1
    29    17    19   ar
    30    19    20   ar
    31    20    21   ar
    32    21    22   ar
    33    22    23    1
    34    11    14    1
    35    14    15    1
    36    15     8    1
    37     6     1    1
    38    22    16   ar
    39    30    25   ar
    40    36    31   ar
@<TRIPOS>MOLECULE
*****
 36 40 0 0 0
SMALL
GASTEIGER

@<TRIPOS>ATOM
      1 N         142.8440  141.7975  162.8033 N.3     1  UNL1       -0.2750
      2 C         143.3078  140.6518  163.6529 C.3     1  UNL1        0.0737
      3 C         142.7084  140.4342  165.0106 C.3     1  UNL1        0.0374
      4 C         141.6452  141.3623  165.5186 C.3     1  UNL1        0.0800
      5 C         141.1813  142.5081  164.6689 C.3     1  UNL1        0.0374
      6 C         141.7807  142.7257  163.3112 C.3     1  UNL1        0.0737
      7 C         144.4301  142.7665  162.2893 C.3     1  UNL1        0.0161
      8 C         143.4434  142.0152  161.4455 C.3     1  UNL1        0.0487
      9 C         142.2485  141.1884  161.0732 C.3     1  UNL1        0.0362
     10 C         141.9957  140.8401  159.6363 C.3     1  UNL1        0.0951
     11 N         142.9378  141.3187  158.5716 N.am    1  UNL1       -0.2759
     12 C         142.6850  140.9704  157.1347 C.2     1  UNL1        0.2508
     13 O         143.6271  141.4490  156.0701 O.2     1  UNL1       -0.2698
     14 C         144.1327  142.1455  158.9439 C.3     1  UNL1        0.0951
     15 C         144.3855  142.4938  160.3808 C.3     1  UNL1        0.0362
     16 C         141.4901  140.1436  156.7624 C.ar    1  UNL1        0.0777
     17 C         141.6120  138.6520  156.6620 C.ar    1  UNL1        0.0820
     18 CL        142.9289  137.9870  156.9339 Cl      1  UNL1       -0.0804
     19 C         140.4171  137.8251  156.2898 C.ar    1  UNL1        0.1104
     20 N         139.1003  138.4900  156.0179 N.ar    1  UNL1       -0.2405
     21 C         138.9783  139.9817  156.1183 C.ar    1  UNL1        0.1104
     22 C         140.1732  140.8085  156.4906 C.ar    1  UNL1        0.0820
     23 CL        140.0514  142.3001  156.5909 Cl      1  UNL1       -0.0804
     24 N         141.0458  141.1447  166.8763 N.pl3   1  UNL1       -0.2872
     25 C         141.6323  141.8313  168.0740 C.ar    1  UNL1        0.0516
     26 C         140.8460  142.8871  168.7931 C.ar    1  UNL1        0.0148
     27 C         141.4327  143.5738  169.9908 C.ar    1  UNL1        0.0013
     28 C         142.8055  143.2047  170.4693 C.ar    1  UNL1        0.0001
     29 C         143.5919  142.1490  169.7501 C.ar    1  UNL1        0.0013
     30 C         143.0053  141.4623  168.5525 C.ar    1  UNL1        0.0148
     31 C         139.8598  140.2403  167.0364 C.ar    1  UNL1        0.0710
     32 C         139.2831  139.5411  165.8412 C.ar    1  UNL1        0.0180
     33 C         138.0971  138.6368  166.0012 C.ar    1  UNL1        0.0220
     34 C         137.4879  138.4316  167.3564 C.ar    1  UNL1        0.0990
     35 N         138.0646  139.1308  168.5517 N.ar    1  UNL1       -0.2410
     36 C         139.2505  140.0351  168.3917 C.ar    1  UNL1        0.1136
@<TRIPOS>BOND
     1     7     8    1
     2     8     1    1
     3     1     2    1
     4     2     3    1
     5     3     4    1
     6     4    24    1
     7    24    25    1
     8    25    26   ar
     9    26    27   ar
    10    27    28   ar
    11    28    29   ar
    12    29    30   ar
    13    24    31    1
    14    31    32   ar
    15    32    33   ar
    16    33    34   ar
    17    34    35   ar
    18    35    36   ar
    19     4     5    1
    20     5     6    1
    21     8     9    1
    22     9    10    1
    23    10    11    1
    24    11    12   am
    25    12    13    2
    26    12    16    1
    27    16    17   ar
    28    17    18    1
    29    17    19   ar
    30    19    20   ar
    31    20    21   ar
    32    21    22   ar
    33    22    23    1
    34    11    14    1
    35    14    15    1
    36    15     8    1
    37     6     1    1
    38    22    16   ar
    39    30    25   ar
    40    36    31   ar
@<TRIPOS>MOLECULE
*****
 36 40 0 0 0
SMALL
GASTEIGER

@<TRIPOS>ATOM
      1 N         143.3836  140.2640  163.3520 N.3     1  UNL1       -0.2750
      2 C         142.1862  140.1043  162.4629 C.3     1  UNL1        0.0737
      3 C         142.1066  140.8594  161.1693 C.3     1  UNL1        0.0374
      4 C         143.2244  141.7741  160.7648 C.3     1  UNL1        0.0800
      5 C         144.4219  141.9338  161.6538 C.3     1  UNL1        0.0374
      6 C         144.5015  141.1787  162.9475 C.3     1  UNL1        0.0737
      7 C         144.0596  138.4948  163.7150 C.3     1  UNL1        0.0161
      8 C         143.4633  139.5089  164.6457 C.3     1  UNL1        0.0487
      9 C         142.8394  140.7852  165.1270 C.3     1  UNL1        0.0362
     10 C         142.5022  140.9542  166.5788 C.3     1  UNL1        0.0951
     11 N         142.7889  139.8469  167.5493 N.am    1  UNL1       -0.2759
     12 C         142.4517  140.0160  169.0010 C.2     1  UNL1        0.2508
     13 O         142.7385  138.9088  169.9715 O.2     1  UNL1       -0.2698
     14 C         143.4129  138.5707  167.0679 C.3     1  UNL1        0.0951
     15 C         143.7501  138.4016  165.6161 C.3     1  UNL1        0.0362
     16 C         141.8277  141.2923  169.4824 C.ar    1  UNL1        0.0777
     17 C         142.6966  142.4469  169.8845 C.ar    1  UNL1        0.0820
     18 CL        144.1897  142.3254  169.8053 Cl      1  UNL1       -0.0804
     19 C         142.0726  143.7233  170.3658 C.ar    1  UNL1        0.1104
     20 N         140.5797  143.8449  170.4450 N.ar    1  UNL1       -0.2405
     21 C         139.7107  142.6903  170.0429 C.ar    1  UNL1        0.1104
     22 C         140.3347  141.4139  169.5616 C.ar    1  UNL1        0.0820
     23 CL        139.4658  140.2593  169.1595 Cl      1  UNL1       -0.0804
     24 N         143.1448  142.5292  159.4711 N.pl3   1  UNL1       -0.2872
     25 C         144.0100  142.1273  158.3136 C.ar    1  UNL1        0.0516
     26 C         143.4982  141.1482  157.2990 C.ar    1  UNL1        0.0148
     27 C         144.3635  140.7463  156.1415 C.ar    1  UNL1        0.0013
     28 C         145.7406  141.3235  155.9986 C.ar    1  UNL1        0.0001
     29 C         146.2524  142.3026  157.0132 C.ar    1  UNL1        0.0013
     30 C         145.3872  142.7045  158.1707 C.ar    1  UNL1        0.0148
     31 C         142.1998  143.6862  159.3349 C.ar    1  UNL1        0.0710
     32 C         141.5470  144.2687  160.5533 C.ar    1  UNL1        0.0180
     33 C         140.6021  145.4257  160.4171 C.ar    1  UNL1        0.0220
     34 C         140.3100  146.0001  159.0627 C.ar    1  UNL1        0.0990
     35 N         140.9628  145.4175  157.8442 N.ar    1  UNL1       -0.2410
     36 C         141.9077  144.2606  157.9803 C.ar    1  UNL1        0.1136
@<TRIPOS>BOND
     1     7     8    1
     2     8     1    1
     3     1     2    1
     4     2     3    1
     5     3     4    1
     6     4    24    1
     7    24    25    1
     8    25    26   ar
     9    26    27   ar
    10    27    28   ar
    11    28    29   ar
    12    29    30   ar
    13    24    31    1
    14    31    32   ar
    15    32    33   ar
    16    33    34   ar
    17    34    35   ar
    18    35    36   ar
    19     4     5    1
    20     5     6    1
    21     8     9    1
    22     9    10    1
    23    10    11    1
    24    11    12   am
    25    12    13    2
    26    12    16    1
    27    16    17   ar
    28    17    18    1
    29    17    19   ar
    30    19    20   ar
    31    20    21   ar
    32    21    22   ar
    33    22    23    1
    34    11    14    1
    35    14    15    1
    36    15     8    1
    37     6     1    1
    38    22    16   ar
    39    30    25   ar
    40    36    31   ar
@<TRIPOS>MOLECULE
*****
 36 40 0 0 0
SMALL
GASTEIGER

@<TRIPOS>ATOM
      1 N         140.0090  139.1933  163.4412 N.3     1  UNL1       -0.2750
      2 C         141.1255  138.2504  163.1031 C.3     1  UNL1        0.0737
      3 C         141.8110  138.3462  161.7724 C.3     1  UNL1        0.0374
      4 C         141.3800  139.3849  160.7797 C.3     1  UNL1        0.0800
      5 C         140.2635  140.3278  161.1178 C.3     1  UNL1        0.0374
      6 C         139.5780  140.2320  162.4485 C.3     1  UNL1        0.0737
      7 C         138.3123  138.4043  163.9075 C.3     1  UNL1        0.0161
      8 C         139.3234  139.0976  164.7719 C.3     1  UNL1        0.0487
      9 C         140.5725  139.8241  165.1741 C.3     1  UNL1        0.0362
     10 C         140.7849  140.2141  166.6069 C.3     1  UNL1        0.0951
     11 N         139.7482  139.8776  167.6374 N.am    1  UNL1       -0.2759
     12 C         139.9606  140.2676  169.0701 C.2     1  UNL1        0.2508
     13 O         138.9239  139.9311  170.1007 O.2     1  UNL1       -0.2698
     14 C         138.4991  139.1511  167.2352 C.3     1  UNL1        0.0951
     15 C         138.2866  138.7610  165.8025 C.3     1  UNL1        0.0362
     16 C         141.2098  140.9942  169.4723 C.ar    1  UNL1        0.0777
     17 C         142.4327  140.2211  169.8680 C.ar    1  UNL1        0.0820
     18 CL        142.4066  138.7213  169.8615 Cl      1  UNL1       -0.0804
     19 C         143.6819  140.9477  170.2702 C.ar    1  UNL1        0.1104
     20 N         143.7080  142.4474  170.2767 N.ar    1  UNL1       -0.2405
     21 C         142.4851  143.2206  169.8810 C.ar    1  UNL1        0.1104
     22 C         141.2359  142.4940  169.4788 C.ar    1  UNL1        0.0820
     23 CL        140.0130  143.2671  169.0831 Cl      1  UNL1       -0.0804
     24 N         142.0656  139.4806  159.4490 N.pl3   1  UNL1       -0.2872
     25 C         141.7531  138.4855  158.3710 C.ar    1  UNL1        0.0516
     26 C         140.4030  138.4869  157.7174 C.ar    1  UNL1        0.0148
     27 C         140.0906  137.4916  156.6394 C.ar    1  UNL1        0.0013
     28 C         141.1283  136.4951  156.2151 C.ar    1  UNL1        0.0001
     29 C         142.4784  136.4937  156.8687 C.ar    1  UNL1        0.0013
     30 C         142.7908  137.4888  157.9466 C.ar    1  UNL1        0.0148
     31 C         143.0636  140.5715  159.1962 C.ar    1  UNL1        0.0710
     32 C         143.3940  140.9746  157.7897 C.ar    1  UNL1        0.0180
     33 C         144.3920  142.0656  157.5370 C.ar    1  UNL1        0.0220
     34 C         145.0596  142.7534  158.6908 C.ar    1  UNL1        0.0990
     35 N         144.7292  142.3503  160.0974 N.ar    1  UNL1       -0.2410
     36 C         143.7312  141.2593  160.3501 C.ar    1  UNL1        0.1136
@<TRIPOS>BOND
     1     7     8    1
     2     8     1    1
     3     1     2    1
     4     2     3    1
     5     3     4    1
     6     4    24    1
     7    24    25    1
     8    25    26   ar
     9    26    27   ar
    10    27    28   ar
    11    28    29   ar
    12    29    30   ar
    13    24    31    1
    14    31    32   ar
    15    32    33   ar
    16    33    34   ar
    17    34    35   ar
    18    35    36   ar
    19     4     5    1
    20     5     6    1
    21     8     9    1
    22     9    10    1
    23    10    11    1
    24    11    12   am
    25    12    13    2
    26    12    16    1
    27    16    17   ar
    28    17    18    1
    29    17    19   ar
    30    19    20   ar
    31    20    21   ar
    32    21    22   ar
    33    22    23    1
    34    11    14    1
    35    14    15    1
    36    15     8    1
    37     6     1    1
    38    22    16   ar
    39    30    25   ar
    40    36    31   ar
@<TRIPOS>MOLECULE
*****
 36 40 0 0 0
SMALL
GASTEIGER

@<TRIPOS>ATOM
      1 N         140.5276  138.6068  160.1376 N.3     1  UNL1       -0.2750
      2 C         139.7186  138.5360  158.8764 C.3     1  UNL1        0.0737
      3 C         140.3508  138.0490  157.6063 C.3     1  UNL1        0.0374
      4 C         141.7918  137.6328  157.5974 C.3     1  UNL1        0.0800
      5 C         142.6008  137.7036  158.8585 C.3     1  UNL1        0.0374
      6 C         141.9686  138.1906  160.1286 C.3     1  UNL1        0.0737
      7 C         138.9306  138.0068  161.0367 C.3     1  UNL1        0.0161
      8 C         139.8954  139.0938  161.4078 C.3     1  UNL1        0.0487
      9 C         141.0798  140.0116  161.3377 C.3     1  UNL1        0.0362
     10 C         141.2969  141.0389  162.4089 C.3     1  UNL1        0.0951
     11 N         140.3297  141.1484  163.5502 N.am    1  UNL1       -0.2759
     12 C         140.5468  142.1757  164.6214 C.2     1  UNL1        0.2508
     13 O         139.5797  142.2852  165.7627 O.2     1  UNL1       -0.2698
     14 C         139.1454  140.2306  163.6203 C.3     1  UNL1        0.0951
     15 C         138.9282  139.2033  162.5491 C.3     1  UNL1        0.0362
     16 C         141.7313  143.0935  164.5513 C.ar    1  UNL1        0.0777
     17 C         141.5956  144.4458  163.9168 C.ar    1  UNL1        0.0820
     18 CL        140.2756  144.8806  163.3523 Cl      1  UNL1       -0.0804
     19 C         142.7800  145.3637  163.8467 C.ar    1  UNL1        0.1104
     20 N         144.1000  144.9290  164.4111 N.ar    1  UNL1       -0.2405
     21 C         144.2357  143.5766  165.0456 C.ar    1  UNL1        0.1104
     22 C         143.0513  142.6588  165.1157 C.ar    1  UNL1        0.0820
     23 CL        143.1870  141.3065  165.7502 Cl      1  UNL1       -0.0804
     24 N         142.4240  137.1458  156.3272 N.pl3   1  UNL1       -0.2872
     25 C         142.5122  135.6744  156.0495 C.ar    1  UNL1        0.0516
     26 C         141.3875  134.9754  155.3449 C.ar    1  UNL1        0.0148
     27 C         141.4757  133.5039  155.0672 C.ar    1  UNL1        0.0013
     28 C         142.6886  132.7315  155.4942 C.ar    1  UNL1        0.0001
     29 C         143.8132  133.4305  156.1988 C.ar    1  UNL1        0.0013
     30 C         143.7251  134.9019  156.4765 C.ar    1  UNL1        0.0148
     31 C         142.9679  138.1303  155.3347 C.ar    1  UNL1        0.0710
     32 C         144.4265  138.4797  155.3472 C.ar    1  UNL1        0.0180
     33 C         144.9705  139.4642  154.3547 C.ar    1  UNL1        0.0220
     34 C         144.0557  140.0992  153.3498 C.ar    1  UNL1        0.0990
     35 N         142.5970  139.7498  153.3373 N.ar    1  UNL1       -0.2410
     36 C         142.0531  138.7654  154.3298 C.ar    1  UNL1        0.1136
@<TRIPOS>BOND
     1     7     8    1
     2     8     1    1
     3     1     2    1
     4     2     3    1
     5     3     4    1
     6     4    24    1
     7    24    25    1
     8    25    26   ar
     9    26    27   ar
    10    27    28   ar
    11    28    29   ar
    12    29    30   ar
    13    24    31    1
    14    31    32   ar
    15    32    33   ar
    16    33    34   ar
    17    34    35   ar
    18    35    36   ar
    19     4     5    1
    20     5     6    1
    21     8     9    1
    22     9    10    1
    23    10    11    1
    24    11    12   am
    25    12    13    2
    26    12    16    1
    27    16    17   ar
    28    17    18    1
    29    17    19   ar
    30    19    20   ar
    31    20    21   ar
    32    21    22   ar
    33    22    23    1
    34    11    14    1
    35    14    15    1
    36    15     8    1
    37     6     1    1
    38    22    16   ar
    39    30    25   ar
    40    36    31   ar
@<TRIPOS>MOLECULE
*****
 36 40 0 0 0
SMALL
GASTEIGER

@<TRIPOS>ATOM
      1 N         140.5313  138.6138  160.1524 N.3     1  UNL1       -0.2750
      2 C         141.9702  138.1903  160.1412 C.3     1  UNL1        0.0737
      3 C         142.6006  137.7095  158.8678 C.3     1  UNL1        0.0374
      4 C         141.7920  137.6522  157.6057 C.3     1  UNL1        0.0800
      5 C         140.3531  138.0758  157.6169 C.3     1  UNL1        0.0374
      6 C         139.7228  138.5566  158.8902 C.3     1  UNL1        0.0737
      7 C         138.9376  138.0071  161.0526 C.3     1  UNL1        0.0161
      8 C         139.9009  139.0947  161.4258 C.3     1  UNL1        0.0487
      9 C         141.0832  140.0152  161.3566 C.3     1  UNL1        0.0362
     10 C         141.3005  141.0389  162.4313 C.3     1  UNL1        0.0951
     11 N         140.3355  141.1420  163.5751 N.am    1  UNL1       -0.2759
     12 C         140.5528  142.1657  164.6497 C.2     1  UNL1        0.2508
     13 O         139.5879  142.2688  165.7935 O.2     1  UNL1       -0.2698
     14 C         139.1532  140.2214  163.6442 C.3     1  UNL1        0.0951
     15 C         138.9359  139.1978  162.5696 C.3     1  UNL1        0.0362
     16 C         141.7351  143.0862  164.5806 C.ar    1  UNL1        0.0777
     17 C         143.0511  142.6618  165.1617 C.ar    1  UNL1        0.0820
     18 CL        143.1850  141.3168  165.8121 Cl      1  UNL1       -0.0804
     19 C         144.2334  143.5824  165.0926 C.ar    1  UNL1        0.1104
     20 N         144.0996  144.9274  164.4422 N.ar    1  UNL1       -0.2405
     21 C         142.7835  145.3519  163.8610 C.ar    1  UNL1        0.1104
     22 C         141.6012  144.4313  163.9301 C.ar    1  UNL1        0.0820
     23 CL        140.2852  144.8557  163.3490 Cl      1  UNL1       -0.0804
     24 N         142.4224  137.1714  156.3323 N.pl3   1  UNL1       -0.2872
     25 C         142.5120  135.7013  156.0483 C.ar    1  UNL1        0.0516
     26 C         141.3896  135.0050  155.3374 C.ar    1  UNL1        0.0148
     27 C         141.4793  133.5348  155.0534 C.ar    1  UNL1        0.0013
     28 C         142.6913  132.7610  155.4803 C.ar    1  UNL1        0.0001
     29 C         143.8137  133.4573  156.1911 C.ar    1  UNL1        0.0013
     30 C         143.7241  134.9274  156.4751 C.ar    1  UNL1        0.0148
     31 C         142.9632  138.1607  155.3430 C.ar    1  UNL1        0.0710
     32 C         144.4247  138.4981  155.3421 C.ar    1  UNL1        0.0180
     33 C         144.9655  139.4875  154.3528 C.ar    1  UNL1        0.0220
     34 C         144.0448  140.1394  153.3643 C.ar    1  UNL1        0.0990
     35 N         142.5832  139.8020  153.3651 N.ar    1  UNL1       -0.2410
     36 C         142.0424  138.8127  154.3545 C.ar    1  UNL1        0.1136
@<TRIPOS>BOND
     1     7     8    1
     2     8     1    1
     3     1     2    1
     4     2     3    1
     5     3     4    1
     6     4    24    1
     7    24    25    1
     8    25    26   ar
     9    26    27   ar
    10    27    28   ar
    11    28    29   ar
    12    29    30   ar
    13    24    31    1
    14    31    32   ar
    15    32    33   ar
    16    33    34   ar
    17    34    35   ar
    18    35    36   ar
    19     4     5    1
    20     5     6    1
    21     8     9    1
    22     9    10    1
    23    10    11    1
    24    11    12   am
    25    12    13    2
    26    12    16    1
    27    16    17   ar
    28    17    18    1
    29    17    19   ar
    30    19    20   ar
    31    20    21   ar
    32    21    22   ar
    33    22    23    1
    34    11    14    1
    35    14    15    1
    36    15     8    1
    37     6     1    1
    38    22    16   ar
    39    30    25   ar
    40    36    31   ar
