@<TRIPOS>MOLECULE
*****
 43 48 0 0 0
SMALL
GASTEIGER

@<TRIPOS>ATOM
      1 C         141.1859  141.3468  164.4332 C.ar    1  UNL1        0.1450
      2 C         142.5937  141.8151  164.6538 C.ar    1  UNL1        0.0371
      3 C         143.7014  141.2967  163.7854 C.ar    1  UNL1       -0.0014
      4 C         143.4014  140.3099  162.6963 C.ar    1  UNL1       -0.0258
      5 C         141.9935  139.8415  162.4756 C.ar    1  UNL1       -0.0215
      6 C         140.8858  140.3599  163.3440 C.ar    1  UNL1        0.0330
      7 C         141.6935  138.8548  161.3864 C.3     1  UNL1        0.0457
      8 C         142.8012  138.3363  160.5180 C.3     1  UNL1        0.0765
      9 C         144.2090  138.8047  160.7387 C.3     1  UNL1        0.0246
     10 C         144.5091  139.7915  161.8279 C.3     1  UNL1        0.0277
     11 N         142.5010  137.3495  159.4288 N.am    1  UNL1       -0.3021
     12 C         142.7594  137.7119  157.9964 C.2     1  UNL1        0.2458
     13 O         143.3178  139.0612  157.6531 O.2     1  UNL1       -0.2701
     14 H         142.1345  136.4640  159.6542 H       1  UNL1        0.1497
     15 C         142.4593  136.7252  156.9073 C.ar    1  UNL1        0.0534
     16 C         143.2023  135.4235  156.8489 C.ar    1  UNL1        0.0060
     17 C         142.9022  134.4368  155.7598 C.ar    1  UNL1        0.0172
     18 C         141.8590  134.7517  154.7289 C.ar    1  UNL1        0.0053
     19 C         141.1160  136.0534  154.7873 C.ar    1  UNL1        0.0716
     20 C         141.4161  137.0402  155.8765 C.ar    1  UNL1        0.0084
     21 C         143.6452  133.1350  155.7014 C.ar    1  UNL1        0.0754
     22 C         143.3070  131.9652  154.8255 C.ar    1  UNL1        0.0409
     23 C         144.3097  130.8818  155.0915 C.ar    1  UNL1        0.1214
     24 N         145.2676  131.3819  156.1318 N.ar    1  UNL1       -0.1711
     25 N         144.8570  132.7745  156.5088 N.ar    1  UNL1       -0.2757
     26 H         145.3042  133.3507  157.1699 H       1  UNL1        0.1889
     27 C         140.0728  136.3684  153.7565 C.3     1  UNL1        0.4186
     28 F         139.0297  136.6834  152.7257 F       1  UNL1       -0.1659
     29 F         140.8987  135.6803  152.7104 F       1  UNL1       -0.1659
     30 F         139.2469  137.0566  154.8025 F       1  UNL1       -0.1659
     31 O         140.0782  141.8652  165.3016 O.3     1  UNL1       -0.4537
     32 O         140.7713  142.1730  172.1335 O.2     1  UNL1       -0.2747
     33 C         140.4556  141.8798  170.6967 C.2     1  UNL1        0.2275
     34 C         141.0255  142.7448  169.6119 C.3     1  UNL1        0.0903
     35 C         140.7097  142.4516  168.1751 C.3     1  UNL1        0.0419
     36 C         139.8240  141.2934  167.8232 C.ar    1  UNL1        0.0445
     37 C         139.5082  141.0002  166.3864 C.ar    1  UNL1        0.1455
     38 C         138.6225  139.8420  166.0344 C.ar    1  UNL1        0.0579
     39 C         138.0525  138.9769  167.1193 C.ar    1  UNL1        0.1034
     40 N         138.3682  139.2701  168.5560 N.ar    1  UNL1       -0.2291
     41 C         139.2540  140.4284  168.9080 C.ar    1  UNL1        0.1330
     42 N         139.5698  140.7216  170.3447 N.am    1  UNL1       -0.2695
     43 H         139.1957  140.1538  171.0567 H       1  UNL1        0.1562
@<TRIPOS>BOND
     1    32    33    2
     2    33    34    1
     3    34    35    1
     4    35    36    1
     5    36    37   ar
     6    37    31    1
     7    31     1    1
     8     1     2   ar
     9     2     3   ar
    10     3     4   ar
    11     4     5   ar
    12     5     6   ar
    13     5     7    1
    14     7     8    1
    15     8    11    1
    16    11    12   am
    17    12    13    2
    18    12    15    1
    19    15    16   ar
    20    16    17   ar
    21    17    21    1
    22    21    22   ar
    23    22    23   ar
    24    23    24   ar
    25    24    25   ar
    26    17    18   ar
    27    18    19   ar
    28    19    27    1
    29    27    28    1
    30    27    29    1
    31    27    30    1
    32    19    20   ar
    33     8     9    1
    34     9    10    1
    35    37    38   ar
    36    38    39   ar
    37    39    40   ar
    38    40    41   ar
    39    41    42    1
    40    42    33   am
    41    41    36   ar
    42     6     1   ar
    43    20    15   ar
    44    10     4    1
    45    25    21   ar
    46    11    14    1
    47    25    26    1
    48    42    43    1
@<TRIPOS>MOLECULE
*****
 43 48 0 0 0
SMALL
GASTEIGER

@<TRIPOS>ATOM
      1 C         142.1211  140.9242  165.2038 C.ar    1  UNL1        0.1450
      2 C         143.2698  141.7837  165.6417 C.ar    1  UNL1        0.0371
      3 C         143.5873  143.0471  164.8980 C.ar    1  UNL1       -0.0014
      4 C         142.7561  143.4509  163.7164 C.ar    1  UNL1       -0.0258
      5 C         141.6074  142.5914  163.2785 C.ar    1  UNL1       -0.0215
      6 C         141.2899  141.3280  164.0222 C.ar    1  UNL1        0.0330
      7 C         140.7762  142.9952  162.0970 C.3     1  UNL1        0.0457
      8 C         141.0937  144.2586  161.3533 C.3     1  UNL1        0.0765
      9 C         142.2424  145.1181  161.7911 C.3     1  UNL1        0.0246
     10 C         143.0736  144.7143  162.9727 C.3     1  UNL1        0.0277
     11 N         140.2625  144.6624  160.1717 N.am    1  UNL1       -0.3021
     12 C         140.8308  144.5659  158.7869 C.2     1  UNL1        0.2458
     13 O         142.2302  144.0656  158.5836 O.2     1  UNL1       -0.2701
     14 H         139.3440  144.9907  160.3052 H       1  UNL1        0.1497
     15 C         139.9996  144.9697  157.6053 C.ar    1  UNL1        0.0534
     16 C         139.8940  146.4160  157.2217 C.ar    1  UNL1        0.0060
     17 C         139.0629  146.8197  156.0402 C.ar    1  UNL1        0.0172
     18 C         138.3373  145.7772  155.2422 C.ar    1  UNL1        0.0053
     19 C         138.4428  144.3310  155.6258 C.ar    1  UNL1        0.0716
     20 C         139.2741  143.9272  156.8074 C.ar    1  UNL1        0.0084
     21 C         138.9573  148.2660  155.6565 C.ar    1  UNL1        0.0754
     22 C         139.6338  148.9200  154.4883 C.ar    1  UNL1        0.0409
     23 C         139.2513  150.3704  154.4836 C.ar    1  UNL1        0.1214
     24 N         138.3384  150.6128  155.6488 N.ar    1  UNL1       -0.1711
     25 N         138.1567  149.3123  156.3737 N.ar    1  UNL1       -0.2757
     26 H         137.6083  149.1703  157.1789 H       1  UNL1        0.1889
     27 C         137.7173  143.2885  154.8279 C.3     1  UNL1        0.4186
     28 F         136.9917  142.2460  154.0299 F       1  UNL1       -0.1659
     29 F         138.8897  143.1842  153.8981 F       1  UNL1       -0.1659
     30 F         136.5449  143.3928  155.7576 F       1  UNL1       -0.1659
     31 O         141.8036  139.6608  165.9475 O.3     1  UNL1       -0.4537
     32 O         140.4860  142.0436  172.2591 O.2     1  UNL1       -0.2747
     33 C         140.5059  141.4271  170.8918 C.2     1  UNL1        0.2275
     34 C         141.7441  141.5105  170.0494 C.3     1  UNL1        0.0903
     35 C         141.7640  140.8939  168.6821 C.3     1  UNL1        0.0419
     36 C         140.5455  140.1940  168.1572 C.ar    1  UNL1        0.0445
     37 C         140.5654  139.5774  166.7900 C.ar    1  UNL1        0.1455
     38 C         139.3470  138.8775  166.2651 C.ar    1  UNL1        0.0579
     39 C         138.1086  138.7941  167.1076 C.ar    1  UNL1        0.1034
     40 N         138.0888  139.4106  168.4748 N.ar    1  UNL1       -0.2291
     41 C         139.3073  140.1106  168.9997 C.ar    1  UNL1        0.1330
     42 N         139.2875  140.7272  170.3670 N.am    1  UNL1       -0.2695
     43 H         138.4747  140.6724  170.9199 H       1  UNL1        0.1562
@<TRIPOS>BOND
     1    32    33    2
     2    33    34    1
     3    34    35    1
     4    35    36    1
     5    36    37   ar
     6    37    31    1
     7    31     1    1
     8     1     2   ar
     9     2     3   ar
    10     3     4   ar
    11     4     5   ar
    12     5     6   ar
    13     5     7    1
    14     7     8    1
    15     8    11    1
    16    11    12   am
    17    12    13    2
    18    12    15    1
    19    15    16   ar
    20    16    17   ar
    21    17    21    1
    22    21    22   ar
    23    22    23   ar
    24    23    24   ar
    25    24    25   ar
    26    17    18   ar
    27    18    19   ar
    28    19    27    1
    29    27    28    1
    30    27    29    1
    31    27    30    1
    32    19    20   ar
    33     8     9    1
    34     9    10    1
    35    37    38   ar
    36    38    39   ar
    37    39    40   ar
    38    40    41   ar
    39    41    42    1
    40    42    33   am
    41    41    36   ar
    42     6     1   ar
    43    20    15   ar
    44    10     4    1
    45    25    21   ar
    46    11    14    1
    47    25    26    1
    48    42    43    1
@<TRIPOS>MOLECULE
*****
 43 48 0 0 0
SMALL
GASTEIGER

@<TRIPOS>ATOM
      1 C         143.0892  138.0211  156.8739 C.ar    1  UNL1        0.1450
      2 C         142.8739  139.3042  156.1276 C.ar    1  UNL1        0.0371
      3 C         142.1721  140.4505  156.7935 C.ar    1  UNL1       -0.0014
      4 C         141.6856  140.3137  158.2057 C.ar    1  UNL1       -0.0258
      5 C         141.9009  139.0305  158.9522 C.ar    1  UNL1       -0.0215
      6 C         142.6027  137.8842  158.2863 C.ar    1  UNL1        0.0330
      7 C         141.4145  138.8937  160.3645 C.3     1  UNL1        0.0457
      8 C         140.7127  140.0400  161.0304 C.3     1  UNL1        0.0765
      9 C         140.4973  141.3232  160.2840 C.3     1  UNL1        0.0246
     10 C         140.9838  141.4600  158.8716 C.3     1  UNL1        0.0277
     11 N         140.2262  139.9031  162.4427 N.am    1  UNL1       -0.3021
     12 C         140.9419  140.6115  163.5545 C.2     1  UNL1        0.2458
     13 O         142.1441  141.4568  163.2538 O.2     1  UNL1       -0.2701
     14 H         139.4371  139.3484  162.6400 H       1  UNL1        0.1497
     15 C         140.4555  140.4747  164.9667 C.ar    1  UNL1        0.0534
     16 C         141.0399  141.3346  166.0479 C.ar    1  UNL1        0.0060
     17 C         140.5535  141.1977  167.4602 C.ar    1  UNL1        0.0172
     18 C         139.4826  140.2009  167.7914 C.ar    1  UNL1        0.0053
     19 C         138.8982  139.3410  166.7102 C.ar    1  UNL1        0.0716
     20 C         139.3846  139.4779  165.2979 C.ar    1  UNL1        0.0084
     21 C         141.1380  142.0576  168.5414 C.ar    1  UNL1        0.0754
     22 C         142.5359  141.9703  169.0784 C.ar    1  UNL1        0.0409
     23 C         142.6890  143.0146  170.1444 C.ar    1  UNL1        0.1214
     24 N         141.3858  143.7473  170.2661 N.ar    1  UNL1       -0.1711
     25 N         140.4272  143.1558  169.2754 N.ar    1  UNL1       -0.2757
     26 H         139.4952  143.4388  169.1321 H       1  UNL1        0.1889
     27 C         137.8273  138.3443  167.0413 C.3     1  UNL1        0.4186
     28 F         136.7564  137.3475  167.3724 F       1  UNL1       -0.1659
     29 F         137.5455  139.0725  168.3220 F       1  UNL1       -0.1659
     30 F         138.1091  137.6161  165.7606 F       1  UNL1       -0.1659
     31 O         143.7910  136.8748  156.2080 O.3     1  UNL1       -0.4537
     32 O         143.1940  130.1353  157.4214 O.2     1  UNL1       -0.2747
     33 C         143.1445  131.5556  156.9416 C.2     1  UNL1        0.2275
     34 C         143.9395  132.6138  157.6474 C.3     1  UNL1        0.0903
     35 C         143.8900  134.0341  157.1676 C.3     1  UNL1        0.0419
     36 C         143.0455  134.3963  155.9821 C.ar    1  UNL1        0.0445
     37 C         142.9960  135.8166  155.5023 C.ar    1  UNL1        0.1455
     38 C         142.1515  136.1788  154.3167 C.ar    1  UNL1        0.0579
     39 C         141.3564  135.1206  153.6109 C.ar    1  UNL1        0.1034
     40 N         141.4059  133.7002  154.0907 N.ar    1  UNL1       -0.2291
     41 C         142.2505  133.3381  155.2763 C.ar    1  UNL1        0.1330
     42 N         142.3000  131.9178  155.7561 N.am    1  UNL1       -0.2695
     43 H         141.7781  131.2232  155.2929 H       1  UNL1        0.1562
@<TRIPOS>BOND
     1    32    33    2
     2    33    34    1
     3    34    35    1
     4    35    36    1
     5    36    37   ar
     6    37    31    1
     7    31     1    1
     8     1     2   ar
     9     2     3   ar
    10     3     4   ar
    11     4     5   ar
    12     5     6   ar
    13     5     7    1
    14     7     8    1
    15     8    11    1
    16    11    12   am
    17    12    13    2
    18    12    15    1
    19    15    16   ar
    20    16    17   ar
    21    17    21    1
    22    21    22   ar
    23    22    23   ar
    24    23    24   ar
    25    24    25   ar
    26    17    18   ar
    27    18    19   ar
    28    19    27    1
    29    27    28    1
    30    27    29    1
    31    27    30    1
    32    19    20   ar
    33     8     9    1
    34     9    10    1
    35    37    38   ar
    36    38    39   ar
    37    39    40   ar
    38    40    41   ar
    39    41    42    1
    40    42    33   am
    41    41    36   ar
    42     6     1   ar
    43    20    15   ar
    44    10     4    1
    45    25    21   ar
    46    11    14    1
    47    25    26    1
    48    42    43    1
@<TRIPOS>MOLECULE
*****
 43 48 0 0 0
SMALL
GASTEIGER

@<TRIPOS>ATOM
      1 C         143.8682  140.0922  157.1731 C.ar    1  UNL1        0.1450
      2 C         144.5765  141.4035  157.0044 C.ar    1  UNL1        0.0371
      3 C         144.7417  142.3232  158.1778 C.ar    1  UNL1       -0.0014
      4 C         144.1986  141.9315  159.5200 C.ar    1  UNL1       -0.0258
      5 C         143.4902  140.6200  159.6888 C.ar    1  UNL1       -0.0215
      6 C         143.3250  139.7004  158.5154 C.ar    1  UNL1        0.0330
      7 C         142.9471  140.2283  161.0310 C.3     1  UNL1        0.0457
      8 C         143.1123  141.1479  162.2044 C.3     1  UNL1        0.0765
      9 C         143.8206  142.4593  162.0357 C.3     1  UNL1        0.0246
     10 C         144.3638  142.8511  160.6934 C.3     1  UNL1        0.0277
     11 N         142.5691  140.7561  163.5467 N.am    1  UNL1       -0.3021
     12 C         141.2478  141.2961  164.0077 C.2     1  UNL1        0.2458
     13 O         140.4696  142.2278  163.1265 O.2     1  UNL1       -0.2701
     14 H         143.0798  140.1446  164.1250 H       1  UNL1        0.1497
     15 C         140.7046  140.9043  165.3499 C.ar    1  UNL1        0.0534
     16 C         141.2661  141.5227  166.5958 C.ar    1  UNL1        0.0060
     17 C         140.7229  141.1309  167.9380 C.ar    1  UNL1        0.0172
     18 C         139.6182  140.1208  168.0342 C.ar    1  UNL1        0.0053
     19 C         139.0566  139.5024  166.7883 C.ar    1  UNL1        0.0716
     20 C         139.5999  139.8942  165.4461 C.ar    1  UNL1        0.0084
     21 C         141.2844  141.7493  169.1839 C.ar    1  UNL1        0.0754
     22 C         142.5777  142.5020  169.2890 C.ar    1  UNL1        0.0409
     23 C         142.7438  142.9414  170.7136 C.ar    1  UNL1        0.1214
     24 N         141.5532  142.4603  171.4889 N.ar    1  UNL1       -0.1711
     25 N         140.6513  141.7235  170.5435 N.ar    1  UNL1       -0.2757
     26 H         139.7943  141.2978  170.7748 H       1  UNL1        0.1889
     27 C         137.9519  138.4923  166.8845 C.3     1  UNL1        0.4186
     28 F         136.8473  137.4823  166.9808 F       1  UNL1       -0.1659
     29 F         137.6075  138.9994  168.2535 F       1  UNL1       -0.1659
     30 F         138.2964  137.9853  165.5155 F       1  UNL1       -0.1659
     31 O         143.7030  139.1725  155.9997 O.3     1  UNL1       -0.4537
     32 O         142.3361  132.4364  155.9202 O.2     1  UNL1       -0.2747
     33 C         142.3551  133.9360  155.8904 C.2     1  UNL1        0.2275
     34 C         143.6459  134.6738  156.0892 C.3     1  UNL1        0.0903
     35 C         143.6649  136.1733  156.0593 C.3     1  UNL1        0.0419
     36 C         142.3932  136.9351  155.8307 C.ar    1  UNL1        0.0445
     37 C         142.4122  138.4347  155.8009 C.ar    1  UNL1        0.1455
     38 C         141.1405  139.1965  155.5723 C.ar    1  UNL1        0.0579
     39 C         139.8497  138.4588  155.3734 C.ar    1  UNL1        0.1034
     40 N         139.8306  136.9592  155.4033 N.ar    1  UNL1       -0.2291
     41 C         141.1024  136.1974  155.6319 C.ar    1  UNL1        0.1330
     42 N         141.0834  134.6978  155.6617 N.am    1  UNL1       -0.2695
     43 H         140.2362  134.2136  155.5312 H       1  UNL1        0.1562
@<TRIPOS>BOND
     1    32    33    2
     2    33    34    1
     3    34    35    1
     4    35    36    1
     5    36    37   ar
     6    37    31    1
     7    31     1    1
     8     1     2   ar
     9     2     3   ar
    10     3     4   ar
    11     4     5   ar
    12     5     6   ar
    13     5     7    1
    14     7     8    1
    15     8    11    1
    16    11    12   am
    17    12    13    2
    18    12    15    1
    19    15    16   ar
    20    16    17   ar
    21    17    21    1
    22    21    22   ar
    23    22    23   ar
    24    23    24   ar
    25    24    25   ar
    26    17    18   ar
    27    18    19   ar
    28    19    27    1
    29    27    28    1
    30    27    29    1
    31    27    30    1
    32    19    20   ar
    33     8     9    1
    34     9    10    1
    35    37    38   ar
    36    38    39   ar
    37    39    40   ar
    38    40    41   ar
    39    41    42    1
    40    42    33   am
    41    41    36   ar
    42     6     1   ar
    43    20    15   ar
    44    10     4    1
    45    25    21   ar
    46    11    14    1
    47    25    26    1
    48    42    43    1
@<TRIPOS>MOLECULE
*****
 43 48 0 0 0
SMALL
GASTEIGER

@<TRIPOS>ATOM
      1 C         142.3197  136.5165  156.0774 C.ar    1  UNL1        0.1450
      2 C         140.8703  136.5454  155.6922 C.ar    1  UNL1        0.0371
      3 C         139.8911  137.3291  156.5150 C.ar    1  UNL1       -0.0014
      4 C         140.3613  138.0840  157.7229 C.ar    1  UNL1       -0.0258
      5 C         141.8107  138.0551  158.1081 C.ar    1  UNL1       -0.0215
      6 C         142.7899  137.2713  157.2853 C.ar    1  UNL1        0.0330
      7 C         142.2809  138.8099  159.3160 C.3     1  UNL1        0.0457
      8 C         141.3018  139.5937  160.1388 C.3     1  UNL1        0.0765
      9 C         139.8524  139.6226  159.7536 C.3     1  UNL1        0.0246
     10 C         139.3821  138.8677  158.5457 C.3     1  UNL1        0.0277
     11 N         141.7720  140.3485  161.3467 N.am    1  UNL1       -0.3021
     12 C         141.6173  139.7490  162.7130 C.2     1  UNL1        0.2458
     13 O         140.9923  138.3945  162.8712 O.2     1  UNL1       -0.2701
     14 H         142.1822  141.2375  161.2428 H       1  UNL1        0.1497
     15 C         142.0875  140.5037  163.9209 C.ar    1  UNL1        0.0534
     16 C         141.9702  139.8871  165.2832 C.ar    1  UNL1        0.0060
     17 C         142.4404  140.6419  166.4912 C.ar    1  UNL1        0.0172
     18 C         143.0280  142.0134  166.3368 C.ar    1  UNL1        0.0053
     19 C         143.1454  142.6300  164.9744 C.ar    1  UNL1        0.0716
     20 C         142.6751  141.8751  163.7665 C.ar    1  UNL1        0.0084
     21 C         142.3230  140.0252  167.8535 C.ar    1  UNL1        0.0754
     22 C         141.3236  140.3996  168.9076 C.ar    1  UNL1        0.0409
     23 C         141.5674  139.5317  170.1065 C.ar    1  UNL1        0.1214
     24 N         142.7174  138.6210  169.7934 N.ar    1  UNL1       -0.1711
     25 N         143.1844  138.9260  168.4010 N.ar    1  UNL1       -0.2757
     26 H         143.9261  138.4826  167.9292 H       1  UNL1        0.1889
     27 C         143.7330  144.0014  164.8200 C.3     1  UNL1        0.4186
     28 F         144.3206  145.3728  164.6656 F       1  UNL1       -0.1659
     29 F         145.0355  143.5058  165.3748 F       1  UNL1       -0.1659
     30 F         142.4305  144.4970  164.2653 F       1  UNL1       -0.1659
     31 O         143.2988  135.7327  155.2546 O.3     1  UNL1       -0.4537
     32 O         145.0184  129.9074  158.4732 O.2     1  UNL1       -0.2747
     33 C         144.5172  131.0057  157.5829 C.2     1  UNL1        0.2275
     34 C         144.8024  132.4379  157.9255 C.3     1  UNL1        0.0903
     35 C         144.3012  133.5362  157.0352 C.3     1  UNL1        0.0419
     36 C         143.5148  133.2023  155.8023 C.ar    1  UNL1        0.0445
     37 C         143.0136  134.3005  154.9121 C.ar    1  UNL1        0.1455
     38 C         142.2271  133.9666  153.6792 C.ar    1  UNL1        0.0579
     39 C         141.9418  132.5343  153.3366 C.ar    1  UNL1        0.1034
     40 N         142.4430  131.4361  154.2269 N.ar    1  UNL1       -0.2291
     41 C         143.2295  131.7701  155.4598 C.ar    1  UNL1        0.1330
     42 N         143.7307  130.6718  156.3501 N.am    1  UNL1       -0.2695
     43 H         143.5435  129.7318  156.1252 H       1  UNL1        0.1562
@<TRIPOS>BOND
     1    32    33    2
     2    33    34    1
     3    34    35    1
     4    35    36    1
     5    36    37   ar
     6    37    31    1
     7    31     1    1
     8     1     2   ar
     9     2     3   ar
    10     3     4   ar
    11     4     5   ar
    12     5     6   ar
    13     5     7    1
    14     7     8    1
    15     8    11    1
    16    11    12   am
    17    12    13    2
    18    12    15    1
    19    15    16   ar
    20    16    17   ar
    21    17    21    1
    22    21    22   ar
    23    22    23   ar
    24    23    24   ar
    25    24    25   ar
    26    17    18   ar
    27    18    19   ar
    28    19    27    1
    29    27    28    1
    30    27    29    1
    31    27    30    1
    32    19    20   ar
    33     8     9    1
    34     9    10    1
    35    37    38   ar
    36    38    39   ar
    37    39    40   ar
    38    40    41   ar
    39    41    42    1
    40    42    33   am
    41    41    36   ar
    42     6     1   ar
    43    20    15   ar
    44    10     4    1
    45    25    21   ar
    46    11    14    1
    47    25    26    1
    48    42    43    1
@<TRIPOS>MOLECULE
*****
 43 48 0 0 0
SMALL
GASTEIGER

@<TRIPOS>ATOM
      1 C         140.6004  141.5250  165.5471 C.ar    1  UNL1        0.1450
      2 C         139.1979  141.0258  165.7300 C.ar    1  UNL1        0.0371
      3 C         138.6245  140.0301  164.7657 C.ar    1  UNL1       -0.0014
      4 C         139.4536  139.5337  163.6185 C.ar    1  UNL1       -0.0258
      5 C         140.8563  140.0330  163.4356 C.ar    1  UNL1       -0.0215
      6 C         141.4297  141.0286  164.3999 C.ar    1  UNL1        0.0330
      7 C         141.6855  139.5366  162.2884 C.3     1  UNL1        0.0457
      8 C         141.1121  138.5410  161.3241 C.3     1  UNL1        0.0765
      9 C         139.7095  138.0417  161.5070 C.3     1  UNL1        0.0246
     10 C         138.8803  138.5381  162.6542 C.3     1  UNL1        0.0277
     11 N         141.9414  138.0446  160.1769 N.am    1  UNL1       -0.3021
     12 C         141.7349  138.6093  158.8027 C.2     1  UNL1        0.2458
     13 O         140.6992  139.6704  158.5757 O.2     1  UNL1       -0.2701
     14 H         142.6211  137.3482  160.3259 H       1  UNL1        0.1497
     15 C         142.5641  138.1130  157.6555 C.ar    1  UNL1        0.0534
     16 C         143.2556  139.0903  156.7518 C.ar    1  UNL1        0.0060
     17 C         144.0848  138.5940  155.6047 C.ar    1  UNL1        0.0172
     18 C         144.2225  137.1203  155.3611 C.ar    1  UNL1        0.0053
     19 C         143.5310  136.1429  156.2648 C.ar    1  UNL1        0.0716
     20 C         142.7018  136.6393  157.4121 C.ar    1  UNL1        0.0084
     21 C         144.7762  139.5713  154.7010 C.ar    1  UNL1        0.0754
     22 C         145.1826  140.9697  155.0608 C.ar    1  UNL1        0.0409
     23 C         145.8403  141.5845  153.8609 C.ar    1  UNL1        0.1214
     24 N         145.8404  140.5661  152.7596 N.ar    1  UNL1       -0.1711
     25 N         145.1827  139.3219  153.2788 N.ar    1  UNL1       -0.2757
     26 H         145.0425  138.4880  152.7746 H       1  UNL1        0.1889
     27 C         143.6687  134.6693  156.0214 C.3     1  UNL1        0.4186
     28 F         143.8064  133.1956  155.7779 F       1  UNL1       -0.1659
     29 F         143.8747  134.4458  157.4902 F       1  UNL1       -0.1659
     30 F         143.4628  134.8927  154.5525 F       1  UNL1       -0.1659
     31 O         141.1738  142.5207  166.5114 O.3     1  UNL1       -0.4537
     32 O         143.3669  137.4394  170.5884 O.2     1  UNL1       -0.2747
     33 C         142.7796  138.6571  169.9384 C.2     1  UNL1        0.2275
     34 C         142.9355  138.8678  168.4615 C.3     1  UNL1        0.0903
     35 C         142.3483  140.0854  167.8115 C.3     1  UNL1        0.0419
     36 C         141.6052  141.0923  168.6383 C.ar    1  UNL1        0.0445
     37 C         141.0179  142.3100  167.9883 C.ar    1  UNL1        0.1455
     38 C         140.2748  143.3169  168.8152 C.ar    1  UNL1        0.0579
     39 C         140.1188  143.1062  170.2922 C.ar    1  UNL1        0.1034
     40 N         140.7061  141.8886  170.9422 N.ar    1  UNL1       -0.2291
     41 C         141.4493  140.8816  170.1152 C.ar    1  UNL1        0.1330
     42 N         142.0365  139.6640  170.7652 N.am    1  UNL1       -0.2695
     43 H         141.9342  139.5257  171.7346 H       1  UNL1        0.1562
@<TRIPOS>BOND
     1    32    33    2
     2    33    34    1
     3    34    35    1
     4    35    36    1
     5    36    37   ar
     6    37    31    1
     7    31     1    1
     8     1     2   ar
     9     2     3   ar
    10     3     4   ar
    11     4     5   ar
    12     5     6   ar
    13     5     7    1
    14     7     8    1
    15     8    11    1
    16    11    12   am
    17    12    13    2
    18    12    15    1
    19    15    16   ar
    20    16    17   ar
    21    17    21    1
    22    21    22   ar
    23    22    23   ar
    24    23    24   ar
    25    24    25   ar
    26    17    18   ar
    27    18    19   ar
    28    19    27    1
    29    27    28    1
    30    27    29    1
    31    27    30    1
    32    19    20   ar
    33     8     9    1
    34     9    10    1
    35    37    38   ar
    36    38    39   ar
    37    39    40   ar
    38    40    41   ar
    39    41    42    1
    40    42    33   am
    41    41    36   ar
    42     6     1   ar
    43    20    15   ar
    44    10     4    1
    45    25    21   ar
    46    11    14    1
    47    25    26    1
    48    42    43    1
@<TRIPOS>MOLECULE
*****
 43 48 0 0 0
SMALL
GASTEIGER

@<TRIPOS>ATOM
      1 C         138.9316  143.6774  156.1692 C.ar    1  UNL1        0.1450
      2 C         139.5211  145.0546  156.0938 C.ar    1  UNL1        0.0371
      3 C         140.1858  145.6529  157.2981 C.ar    1  UNL1       -0.0014
      4 C         140.2609  144.8741  158.5778 C.ar    1  UNL1       -0.0258
      5 C         139.6714  143.4968  158.6532 C.ar    1  UNL1       -0.0215
      6 C         139.0068  142.8984  157.4490 C.ar    1  UNL1        0.0330
      7 C         139.7466  142.7179  159.9329 C.3     1  UNL1        0.0457
      8 C         140.4112  143.3162  161.1372 C.3     1  UNL1        0.0765
      9 C         141.0007  144.6935  161.0618 C.3     1  UNL1        0.0246
     10 C         140.9256  145.4724  159.7820 C.3     1  UNL1        0.0277
     11 N         140.4864  142.5373  162.4169 N.am    1  UNL1       -0.3021
     12 C         139.4046  142.6798  163.4462 C.2     1  UNL1        0.2458
     13 O         138.2477  143.6012  163.1958 O.2     1  UNL1       -0.2701
     14 H         141.2457  141.9325  162.5813 H       1  UNL1        0.1497
     15 C         139.4797  141.9009  164.7259 C.ar    1  UNL1        0.0534
     16 C         140.1648  142.4898  165.9233 C.ar    1  UNL1        0.0060
     17 C         140.2399  141.7109  167.2030 C.ar    1  UNL1        0.0172
     18 C         139.6298  140.3430  167.2853 C.ar    1  UNL1        0.0053
     19 C         138.9447  139.7540  166.0880 C.ar    1  UNL1        0.0716
     20 C         138.8696  140.5330  164.8082 C.ar    1  UNL1        0.0084
     21 C         140.9250  142.2999  168.4004 C.ar    1  UNL1        0.0754
     22 C         142.3551  142.0784  168.7956 C.ar    1  UNL1        0.0409
     23 C         142.6143  142.8554  170.0523 C.ar    1  UNL1        0.1214
     24 N         141.3445  143.5569  170.4337 N.ar    1  UNL1       -0.1711
     25 N         140.3005  143.2136  169.4128 N.ar    1  UNL1       -0.2757
     26 H         139.3690  143.5321  169.4081 H       1  UNL1        0.1889
     27 C         138.3347  138.3862  166.1703 C.3     1  UNL1        0.4186
     28 F         137.7246  137.0184  166.2525 F       1  UNL1       -0.1659
     29 F         139.3735  137.8658  165.2216 F       1  UNL1       -0.1659
     30 F         137.2958  138.9066  167.1189 F       1  UNL1       -0.1659
     31 O         138.2670  143.0790  154.9650 O.3     1  UNL1       -0.4537
     32 O         132.8755  138.9250  155.9269 O.2     1  UNL1       -0.2747
     33 C         134.1917  139.5912  155.6553 C.2     1  UNL1        0.2275
     34 C         134.3183  141.0806  155.7797 C.3     1  UNL1        0.0903
     35 C         135.6345  141.7467  155.5081 C.3     1  UNL1        0.0419
     36 C         136.8242  140.9235  155.1122 C.ar    1  UNL1        0.0445
     37 C         138.1405  141.5896  154.8407 C.ar    1  UNL1        0.1455
     38 C         139.3301  140.7663  154.4448 C.ar    1  UNL1        0.0579
     39 C         139.2036  139.2768  154.3205 C.ar    1  UNL1        0.1034
     40 N         137.8874  138.6106  154.5920 N.ar    1  UNL1       -0.2291
     41 C         136.6977  139.4340  154.9879 C.ar    1  UNL1        0.1330
     42 N         135.3814  138.7679  155.2595 N.am    1  UNL1       -0.2695
     43 H         135.2984  137.7903  155.1779 H       1  UNL1        0.1562
@<TRIPOS>BOND
     1    32    33    2
     2    33    34    1
     3    34    35    1
     4    35    36    1
     5    36    37   ar
     6    37    31    1
     7    31     1    1
     8     1     2   ar
     9     2     3   ar
    10     3     4   ar
    11     4     5   ar
    12     5     6   ar
    13     5     7    1
    14     7     8    1
    15     8    11    1
    16    11    12   am
    17    12    13    2
    18    12    15    1
    19    15    16   ar
    20    16    17   ar
    21    17    21    1
    22    21    22   ar
    23    22    23   ar
    24    23    24   ar
    25    24    25   ar
    26    17    18   ar
    27    18    19   ar
    28    19    27    1
    29    27    28    1
    30    27    29    1
    31    27    30    1
    32    19    20   ar
    33     8     9    1
    34     9    10    1
    35    37    38   ar
    36    38    39   ar
    37    39    40   ar
    38    40    41   ar
    39    41    42    1
    40    42    33   am
    41    41    36   ar
    42     6     1   ar
    43    20    15   ar
    44    10     4    1
    45    25    21   ar
    46    11    14    1
    47    25    26    1
    48    42    43    1
@<TRIPOS>MOLECULE
*****
 43 48 0 0 0
SMALL
GASTEIGER

@<TRIPOS>ATOM
      1 C         141.2677  142.5969  164.3315 C.ar    1  UNL1        0.1450
      2 C         142.6076  143.2625  164.4386 C.ar    1  UNL1        0.0371
      3 C         143.6454  143.0340  163.3799 C.ar    1  UNL1       -0.0014
      4 C         143.3432  142.1398  162.2141 C.ar    1  UNL1       -0.0258
      5 C         142.0033  141.4741  162.1069 C.ar    1  UNL1       -0.0215
      6 C         140.9655  141.7027  163.1656 C.ar    1  UNL1        0.0330
      7 C         141.7011  140.5800  160.9412 C.3     1  UNL1        0.0457
      8 C         142.7389  140.3514  159.8825 C.3     1  UNL1        0.0765
      9 C         144.0788  141.0171  159.9895 C.3     1  UNL1        0.0246
     10 C         144.3810  141.9113  161.1554 C.3     1  UNL1        0.0277
     11 N         142.4366  139.4572  158.7166 N.am    1  UNL1       -0.3021
     12 C         142.6362  137.9754  158.8365 C.2     1  UNL1        0.2458
     13 O         143.1380  137.3878  160.1223 O.2     1  UNL1       -0.2701
     14 H         142.1073  139.8429  157.8728 H       1  UNL1        0.1497
     15 C         142.3340  137.0811  157.6708 C.ar    1  UNL1        0.0534
     16 C         141.1706  137.3852  156.7741 C.ar    1  UNL1        0.0060
     17 C         140.8685  136.4910  155.6083 C.ar    1  UNL1        0.0172
     18 C         141.7297  135.2926  155.3393 C.ar    1  UNL1        0.0053
     19 C         142.8931  134.9886  156.2360 C.ar    1  UNL1        0.0716
     20 C         143.1952  135.8829  157.4018 C.ar    1  UNL1        0.0084
     21 C         139.7051  136.7950  154.7116 C.ar    1  UNL1        0.0754
     22 C         138.4389  137.4907  155.1154 C.ar    1  UNL1        0.0409
     23 C         137.5549  137.5824  153.9070 C.ar    1  UNL1        0.1214
     24 N         138.2747  136.9434  152.7565 N.ar    1  UNL1       -0.1711
     25 N         139.6035  136.4568  153.2538 N.ar    1  UNL1       -0.2757
     26 H         140.2888  135.9963  152.7175 H       1  UNL1        0.1889
     27 C         143.7543  133.7903  155.9669 C.3     1  UNL1        0.4186
     28 F         144.6155  132.5920  155.6979 F       1  UNL1       -0.1659
     29 F         143.1749  133.6836  154.5875 F       1  UNL1       -0.1659
     30 F         144.3337  133.8970  157.3464 F       1  UNL1       -0.1659
     31 O         140.2300  142.8254  165.3902 O.3     1  UNL1       -0.4537
     32 O         140.6900  142.1878  172.2189 O.2     1  UNL1       -0.2747
     33 C         140.4745  142.0667  170.7394 C.2     1  UNL1        0.2275
     34 C         140.8765  143.1887  169.8286 C.3     1  UNL1        0.0903
     35 C         140.6610  143.0676  168.3491 C.3     1  UNL1        0.0419
     36 C         140.0435  141.8246  167.7804 C.ar    1  UNL1        0.0445
     37 C         139.8280  141.7035  166.3009 C.ar    1  UNL1        0.1455
     38 C         139.2105  140.4604  165.7322 C.ar    1  UNL1        0.0579
     39 C         138.8084  139.3384  166.6430 C.ar    1  UNL1        0.1034
     40 N         139.0239  139.4595  168.1225 N.ar    1  UNL1       -0.2291
     41 C         139.6415  140.7026  168.6912 C.ar    1  UNL1        0.1330
     42 N         139.8570  140.8237  170.1707 N.am    1  UNL1       -0.2695
     43 H         139.5931  140.0873  170.7685 H       1  UNL1        0.1562
@<TRIPOS>BOND
     1    32    33    2
     2    33    34    1
     3    34    35    1
     4    35    36    1
     5    36    37   ar
     6    37    31    1
     7    31     1    1
     8     1     2   ar
     9     2     3   ar
    10     3     4   ar
    11     4     5   ar
    12     5     6   ar
    13     5     7    1
    14     7     8    1
    15     8    11    1
    16    11    12   am
    17    12    13    2
    18    12    15    1
    19    15    16   ar
    20    16    17   ar
    21    17    21    1
    22    21    22   ar
    23    22    23   ar
    24    23    24   ar
    25    24    25   ar
    26    17    18   ar
    27    18    19   ar
    28    19    27    1
    29    27    28    1
    30    27    29    1
    31    27    30    1
    32    19    20   ar
    33     8     9    1
    34     9    10    1
    35    37    38   ar
    36    38    39   ar
    37    39    40   ar
    38    40    41   ar
    39    41    42    1
    40    42    33   am
    41    41    36   ar
    42     6     1   ar
    43    20    15   ar
    44    10     4    1
    45    25    21   ar
    46    11    14    1
    47    25    26    1
    48    42    43    1
@<TRIPOS>MOLECULE
*****
 43 48 0 0 0
SMALL
GASTEIGER

@<TRIPOS>ATOM
      1 C         140.5396  141.8794  165.4004 C.ar    1  UNL1        0.1450
      2 C         139.0481  141.7712  165.5163 C.ar    1  UNL1        0.0371
      3 C         138.2698  141.0020  164.4903 C.ar    1  UNL1       -0.0014
      4 C         138.9832  140.3410  163.3483 C.ar    1  UNL1       -0.0258
      5 C         140.4748  140.4492  163.2323 C.ar    1  UNL1       -0.0215
      6 C         141.2530  141.2184  164.2584 C.ar    1  UNL1        0.0330
      7 C         141.1882  139.7881  162.0904 C.3     1  UNL1        0.0457
      8 C         140.4100  139.0189  161.0643 C.3     1  UNL1        0.0765
      9 C         138.9184  138.9108  161.1803 C.3     1  UNL1        0.0246
     10 C         138.2050  139.5718  162.3223 C.3     1  UNL1        0.0277
     11 N         141.1234  138.3579  159.9223 N.am    1  UNL1       -0.3021
     12 C         141.7138  139.1912  158.8237 C.2     1  UNL1        0.2458
     13 O         141.5908  140.6856  158.8671 O.2     1  UNL1       -0.2701
     14 H         141.2041  137.3771  159.8939 H       1  UNL1        0.1497
     15 C         142.4272  138.5302  157.6817 C.ar    1  UNL1        0.0534
     16 C         142.2330  137.0655  157.4231 C.ar    1  UNL1        0.0060
     17 C         142.9464  136.4046  156.2811 C.ar    1  UNL1        0.0172
     18 C         143.8541  137.2083  155.3977 C.ar    1  UNL1        0.0053
     19 C         144.0482  138.6730  155.6564 C.ar    1  UNL1        0.0716
     20 C         143.3348  139.3340  156.7985 C.ar    1  UNL1        0.0084
     21 C         142.7522  134.9399  156.0224 C.ar    1  UNL1        0.0754
     22 C         143.8247  133.8912  156.0423 C.ar    1  UNL1        0.0409
     23 C         143.1867  132.5699  155.7306 C.ar    1  UNL1        0.1214
     24 N         141.7201  132.8018  155.5181 N.ar    1  UNL1       -0.1711
     25 N         141.4516  134.2665  155.6985 N.ar    1  UNL1       -0.2757
     26 H         140.5755  134.7084  155.6184 H       1  UNL1        0.1889
     27 C         144.9558  139.4768  154.7731 C.3     1  UNL1        0.4186
     28 F         145.8634  140.2805  153.8898 F       1  UNL1       -0.1659
     29 F         144.1712  139.0417  153.5710 F       1  UNL1       -0.1659
     30 F         145.7404  139.9119  155.9752 F       1  UNL1       -0.1659
     31 O         141.3178  142.6486  166.4264 O.3     1  UNL1       -0.4537
     32 O         143.2852  137.4264  170.4398 O.2     1  UNL1       -0.2747
     33 C         142.7366  138.6680  169.8016 C.2     1  UNL1        0.2275
     34 C         142.9637  138.9237  168.3411 C.3     1  UNL1        0.0903
     35 C         142.4151  140.1653  167.7029 C.3     1  UNL1        0.0419
     36 C         141.6393  141.1513  168.5251 C.ar    1  UNL1        0.0445
     37 C         141.0907  142.3929  167.8868 C.ar    1  UNL1        0.1455
     38 C         140.3149  143.3788  168.7090 C.ar    1  UNL1        0.0579
     39 C         140.0878  143.1231  170.1696 C.ar    1  UNL1        0.1034
     40 N         140.6364  141.8815  170.8078 N.ar    1  UNL1       -0.2291
     41 C         141.4122  140.8956  169.9855 C.ar    1  UNL1        0.1330
     42 N         141.9608  139.6539  170.6238 N.am    1  UNL1       -0.2695
     43 H         141.8117  139.4861  171.5823 H       1  UNL1        0.1562
@<TRIPOS>BOND
     1    32    33    2
     2    33    34    1
     3    34    35    1
     4    35    36    1
     5    36    37   ar
     6    37    31    1
     7    31     1    1
     8     1     2   ar
     9     2     3   ar
    10     3     4   ar
    11     4     5   ar
    12     5     6   ar
    13     5     7    1
    14     7     8    1
    15     8    11    1
    16    11    12   am
    17    12    13    2
    18    12    15    1
    19    15    16   ar
    20    16    17   ar
    21    17    21    1
    22    21    22   ar
    23    22    23   ar
    24    23    24   ar
    25    24    25   ar
    26    17    18   ar
    27    18    19   ar
    28    19    27    1
    29    27    28    1
    30    27    29    1
    31    27    30    1
    32    19    20   ar
    33     8     9    1
    34     9    10    1
    35    37    38   ar
    36    38    39   ar
    37    39    40   ar
    38    40    41   ar
    39    41    42    1
    40    42    33   am
    41    41    36   ar
    42     6     1   ar
    43    20    15   ar
    44    10     4    1
    45    25    21   ar
    46    11    14    1
    47    25    26    1
    48    42    43    1
