@<TRIPOS>MOLECULE
*****
 31 35 0 0 0
SMALL
GASTEIGER

@<TRIPOS>ATOM
      1 C         137.4901  141.2681  162.5654 C.3     1  UNL1        0.0730
      2 C         139.5818  138.8819  164.8006 C.3     1  UNL1        0.0350
      3 C         140.0364  137.4525  164.8108 C.3     1  UNL1        0.0072
      4 C         139.1958  137.9641  163.6788 C.3     1  UNL1        0.0214
      5 C         138.3653  138.7462  162.7049 C.3     1  UNL1        0.0724
      6 N         138.2379  140.1475  163.2249 N.3     1  UNL1       -0.2724
      7 C         138.9898  140.2313  164.5201 C.3     1  UNL1        0.0761
      8 C         141.5522  140.0299  168.6800 C.ar    1  UNL1        0.1491
      9 C         142.3864  139.5604  167.5253 C.ar    1  UNL1        0.0375
     10 C         141.7296  139.1777  166.2321 C.ar    1  UNL1       -0.0011
     11 C         140.2386  139.2646  166.0938 C.ar    1  UNL1       -0.0204
     12 C         139.4043  139.7341  167.2485 C.ar    1  UNL1        0.0102
     13 C         140.0611  140.1168  168.5416 C.ar    1  UNL1        0.0912
     14 CL        139.2268  140.5864  169.6964 Cl      1  UNL1       -0.0791
     15 C         143.3340  141.4046  169.9781 C.3     1  UNL1        0.2525
     16 O         142.2090  140.4126  169.9731 O.3     1  UNL1       -0.4706
     17 C         137.1941  142.5243  163.3298 C.3     1  UNL1        0.0294
     18 C         137.7636  143.8336  162.8702 C.3     1  UNL1        0.0666
     19 S         138.7681  144.5541  163.7197 S.3     1  UNL1       -0.0756
     20 C         139.9539  143.8166  164.2675 C.ar    1  UNL1        0.1933
     21 N         140.1960  143.4841  165.7099 N.ar    1  UNL1       -0.1220
     22 N         141.4976  142.7442  165.8029 N.ar    1  UNL1       -0.1250
     23 C         142.0598  142.6195  164.4178 C.ar    1  UNL1        0.2029
     24 N         141.1057  143.2823  163.4689 N.ar    1  UNL1       -0.2860
     25 C         141.2740  143.3916  161.9824 C.3     1  UNL1        0.1341
     26 C         143.3496  141.9496  164.0468 C.ar    1  UNL1        0.1964
     27 O         144.7246  142.4113  164.4290 O.2     1  UNL1       -0.4283
     28 C         145.7157  141.4474  163.8469 C.ar    1  UNL1        0.2849
     29 N         144.9531  140.3901  163.1050 N.ar    1  UNL1       -0.2085
     30 C         143.4908  140.7004  163.2286 C.ar    1  UNL1        0.1001
     31 C         142.3669  139.9018  162.6375 C.3     1  UNL1        0.0556
@<TRIPOS>BOND
     1    15    16    1
     2    16     8    1
     3     8     9   ar
     4     9    10   ar
     5    10    11   ar
     6    11     2    1
     7     2     3    1
     8     3     4    1
     9     4     5    1
    10     5     6    1
    11     6     1    1
    12     1    17    1
    13    17    18    1
    14    18    19    1
    15    19    20    1
    16    20    21   ar
    17    21    22   ar
    18    22    23   ar
    19    23    26    1
    20    26    27   ar
    21    27    28   ar
    22    28    29   ar
    23    29    30   ar
    24    30    31    1
    25    23    24   ar
    26    24    25    1
    27     6     7    1
    28    11    12   ar
    29    12    13   ar
    30    13    14    1
    31    13     8   ar
    32     4     2    1
    33    24    20   ar
    34     7     2    1
    35    30    26   ar
@<TRIPOS>MOLECULE
*****
 31 35 0 0 0
SMALL
GASTEIGER

@<TRIPOS>ATOM
      1 C         142.5015  144.2929  161.9879 C.3     1  UNL1        0.0730
      2 C         139.7613  143.7607  164.6848 C.3     1  UNL1        0.0350
      3 C         138.4330  144.3382  165.0749 C.3     1  UNL1        0.0072
      4 C         139.1743  144.8925  163.8946 C.3     1  UNL1        0.0214
      5 C         140.1294  145.2297  162.7882 C.3     1  UNL1        0.0724
      6 N         141.3067  144.3062  162.8945 N.3     1  UNL1       -0.2724
      7 C         141.0792  143.3983  164.0667 C.3     1  UNL1        0.0761
      8 C         139.9120  140.6751  167.9568 C.ar    1  UNL1        0.1491
      9 C         140.5869  142.0014  168.1450 C.ar    1  UNL1        0.0375
     10 C         140.5367  143.0299  167.0544 C.ar    1  UNL1       -0.0011
     11 C         139.8116  142.7322  165.7755 C.ar    1  UNL1       -0.0204
     12 C         139.1367  141.4059  165.5873 C.ar    1  UNL1        0.0102
     13 C         139.1870  140.3773  166.6779 C.ar    1  UNL1        0.0912
     14 CL        138.5121  139.0510  166.4897 Cl      1  UNL1       -0.0791
     15 C         139.9113  140.0739  170.4844 C.3     1  UNL1        0.2525
     16 O         139.9623  139.6465  169.0475 O.3     1  UNL1       -0.4706
     17 C         143.8770  144.1246  162.5623 C.3     1  UNL1        0.0294
     18 C         144.8417  143.1659  161.9297 C.3     1  UNL1        0.0666
     19 S         145.0368  141.8002  162.5186 S.3     1  UNL1       -0.0756
     20 C         143.8809  141.0846  163.1526 C.ar    1  UNL1        0.1933
     21 N         143.7002  140.8282  164.6194 N.ar    1  UNL1       -0.1220
     22 N         142.4105  140.0849  164.8045 N.ar    1  UNL1       -0.1250
     23 C         141.7942  139.8820  163.4521 C.ar    1  UNL1        0.2029
     24 N         142.7030  140.4999  162.4312 N.ar    1  UNL1       -0.2860
     25 C         142.4741  140.5280  160.9490 C.3     1  UNL1        0.1341
     26 C         140.4969  139.1838  163.1701 C.ar    1  UNL1        0.1964
     27 O         139.3271  139.7621  162.4306 O.2     1  UNL1       -0.4283
     28 C         138.2488  138.7205  162.3815 C.ar    1  UNL1        0.2849
     29 N         138.7523  137.4984  163.0907 N.ar    1  UNL1       -0.2085
     30 C         140.1417  137.7848  163.5781 C.ar    1  UNL1        0.1001
     31 C         141.0215  136.8382  164.3399 C.3     1  UNL1        0.0556
@<TRIPOS>BOND
     1    15    16    1
     2    16     8    1
     3     8     9   ar
     4     9    10   ar
     5    10    11   ar
     6    11     2    1
     7     2     3    1
     8     3     4    1
     9     4     5    1
    10     5     6    1
    11     6     1    1
    12     1    17    1
    13    17    18    1
    14    18    19    1
    15    19    20    1
    16    20    21   ar
    17    21    22   ar
    18    22    23   ar
    19    23    26    1
    20    26    27   ar
    21    27    28   ar
    22    28    29   ar
    23    29    30   ar
    24    30    31    1
    25    23    24   ar
    26    24    25    1
    27     6     7    1
    28    11    12   ar
    29    12    13   ar
    30    13    14    1
    31    13     8   ar
    32     4     2    1
    33    24    20   ar
    34     7     2    1
    35    30    26   ar
@<TRIPOS>MOLECULE
*****
 31 35 0 0 0
SMALL
GASTEIGER

@<TRIPOS>ATOM
      1 C         140.6872  137.5626  162.4296 C.3     1  UNL1        0.0730
      2 C         143.3686  139.3957  164.5544 C.3     1  UNL1        0.0350
      3 C         144.8203  139.7636  164.4686 C.3     1  UNL1        0.0072
      4 C         144.1694  139.0118  163.3456 C.3     1  UNL1        0.0214
      5 C         143.2625  138.2784  162.4025 C.3     1  UNL1        0.0724
      6 N         141.9010  138.2090  163.0284 N.3     1  UNL1       -0.2724
      7 C         141.9666  138.8996  164.3584 C.3     1  UNL1        0.0761
      8 C         142.6549  141.2367  168.5981 C.ar    1  UNL1        0.1491
      9 C         142.8804  142.1151  167.4034 C.ar    1  UNL1        0.0375
     10 C         143.1183  141.5015  166.0555 C.ar    1  UNL1       -0.0011
     11 C         143.1307  140.0094  165.9023 C.ar    1  UNL1       -0.0204
     12 C         142.9052  139.1310  167.0971 C.ar    1  UNL1        0.0102
     13 C         142.6674  139.7446  168.4450 C.ar    1  UNL1        0.0912
     14 CL        142.4419  138.8661  169.6398 Cl      1  UNL1       -0.0791
     15 C         141.0206  142.1771  170.3855 C.3     1  UNL1        0.2525
     16 O         142.4170  141.8503  169.9460 O.3     1  UNL1       -0.4706
     17 C         139.3553  137.6960  163.1066 C.3     1  UNL1        0.0294
     18 C         138.1782  138.2319  162.3469 C.3     1  UNL1        0.0666
     19 S         138.1175  139.6866  161.9862 S.3     1  UNL1       -0.0756
     20 C         139.0726  140.6563  162.6169 C.ar    1  UNL1        0.1933
     21 N         138.9500  141.2478  163.9898 N.ar    1  UNL1       -0.1220
     22 N         140.1195  142.1617  164.2068 N.ar    1  UNL1       -0.1250
     23 C         140.9648  142.1350  162.9680 C.ar    1  UNL1        0.2029
     24 N         140.3177  141.2046  161.9853 N.ar    1  UNL1       -0.2860
     25 C         140.8266  140.8795  160.6122 C.3     1  UNL1        0.1341
     26 C         142.2342  142.9037  162.7500 C.ar    1  UNL1        0.1964
     27 O         143.5712  142.3182  162.4042 O.2     1  UNL1       -0.4283
     28 C         144.5529  143.4455  162.2800 C.ar    1  UNL1        0.2849
     29 N         143.8227  144.7278  162.5492 N.ar    1  UNL1       -0.2085
     30 C         142.3896  144.3929  162.8396 C.ar    1  UNL1        0.1001
     31 C         141.3028  145.3750  163.1630 C.3     1  UNL1        0.0556
@<TRIPOS>BOND
     1    15    16    1
     2    16     8    1
     3     8     9   ar
     4     9    10   ar
     5    10    11   ar
     6    11     2    1
     7     2     3    1
     8     3     4    1
     9     4     5    1
    10     5     6    1
    11     6     1    1
    12     1    17    1
    13    17    18    1
    14    18    19    1
    15    19    20    1
    16    20    21   ar
    17    21    22   ar
    18    22    23   ar
    19    23    26    1
    20    26    27   ar
    21    27    28   ar
    22    28    29   ar
    23    29    30   ar
    24    30    31    1
    25    23    24   ar
    26    24    25    1
    27     6     7    1
    28    11    12   ar
    29    12    13   ar
    30    13    14    1
    31    13     8   ar
    32     4     2    1
    33    24    20   ar
    34     7     2    1
    35    30    26   ar
@<TRIPOS>MOLECULE
*****
 31 35 0 0 0
SMALL
GASTEIGER

@<TRIPOS>ATOM
      1 C         141.9524  145.3428  163.1084 C.3     1  UNL1        0.0730
      2 C         143.5722  142.2346  164.7758 C.3     1  UNL1        0.0350
      3 C         144.6807  141.2593  164.5106 C.3     1  UNL1        0.0072
      4 C         144.4012  142.3613  163.5322 C.3     1  UNL1        0.0214
      5 C         143.8953  143.5411  162.7562 C.3     1  UNL1        0.0724
      6 N         142.7536  144.1435  163.5203 N.3     1  UNL1       -0.2724
      7 C         142.5540  143.3360  164.7685 C.3     1  UNL1        0.0761
      8 C         142.2781  140.4237  168.6869 C.ar    1  UNL1        0.1491
      9 C         142.0482  139.6812  167.4041 C.ar    1  UNL1        0.0375
     10 C         142.4796  140.2848  166.1004 C.ar    1  UNL1       -0.0011
     11 C         143.1409  141.6310  166.0795 C.ar    1  UNL1       -0.0204
     12 C         143.3707  142.3735  167.3623 C.ar    1  UNL1        0.0102
     13 C         142.9394  141.7699  168.6660 C.ar    1  UNL1        0.0912
     14 CL        143.1693  142.5126  169.9489 Cl      1  UNL1       -0.0791
     15 C         140.4562  140.0543  170.5018 C.3     1  UNL1        0.2525
     16 O         141.8467  139.8201  169.9906 O.3     1  UNL1       -0.4706
     17 C         140.7468  145.1744  162.2320 C.3     1  UNL1        0.0294
     18 C         140.9006  144.6366  160.8402 C.3     1  UNL1        0.0666
     19 S         139.9881  143.5516  160.3503 S.3     1  UNL1       -0.0756
     20 C         139.1581  142.7718  161.3266 C.ar    1  UNL1        0.1933
     21 N         137.6949  142.9667  161.5929 N.ar    1  UNL1       -0.1220
     22 N         137.2781  141.9756  162.6389 N.ar    1  UNL1       -0.1250
     23 C         138.4837  141.1682  163.0189 C.ar    1  UNL1        0.2029
     24 N         139.6456  141.6602  162.2079 N.ar    1  UNL1       -0.2860
     25 C         141.0488  141.1333  162.2677 C.3     1  UNL1        0.1341
     26 C         138.5210  140.0627  164.0321 C.ar    1  UNL1        0.1964
     27 O         138.3455  140.2184  165.5137 O.2     1  UNL1       -0.4283
     28 C         138.4563  138.8594  166.1389 C.ar    1  UNL1        0.2849
     29 N         138.7003  137.8639  165.0438 N.ar    1  UNL1       -0.2085
     30 C         138.7402  138.6075  163.7417 C.ar    1  UNL1        0.1001
     31 C         138.9608  138.0022  162.3871 C.3     1  UNL1        0.0556
@<TRIPOS>BOND
     1    15    16    1
     2    16     8    1
     3     8     9   ar
     4     9    10   ar
     5    10    11   ar
     6    11     2    1
     7     2     3    1
     8     3     4    1
     9     4     5    1
    10     5     6    1
    11     6     1    1
    12     1    17    1
    13    17    18    1
    14    18    19    1
    15    19    20    1
    16    20    21   ar
    17    21    22   ar
    18    22    23   ar
    19    23    26    1
    20    26    27   ar
    21    27    28   ar
    22    28    29   ar
    23    29    30   ar
    24    30    31    1
    25    23    24   ar
    26    24    25    1
    27     6     7    1
    28    11    12   ar
    29    12    13   ar
    30    13    14    1
    31    13     8   ar
    32     4     2    1
    33    24    20   ar
    34     7     2    1
    35    30    26   ar
@<TRIPOS>MOLECULE
*****
 31 35 0 0 0
SMALL
GASTEIGER

@<TRIPOS>ATOM
      1 C         144.7687  142.6739  164.2117 C.3     1  UNL1        0.0730
      2 C         142.9933  139.7853  166.1009 C.3     1  UNL1        0.0350
      3 C         142.9901  138.2854  166.1256 C.3     1  UNL1        0.0072
      4 C         143.8917  139.0181  165.1767 C.3     1  UNL1        0.0214
      5 C         144.6662  140.0067  164.3565 C.3     1  UNL1        0.0724
      6 N         144.2464  141.3851  164.7738 N.3     1  UNL1       -0.2724
      7 C         143.2125  141.2481  165.8519 C.3     1  UNL1        0.0761
      8 C         139.8936  140.3152  169.3198 C.ar    1  UNL1        0.1491
      9 C         139.4720  139.9728  167.9216 C.ar    1  UNL1        0.0375
     10 C         140.5052  139.7962  166.8486 C.ar    1  UNL1       -0.0011
     11 C         141.9601  139.9619  167.1739 C.ar    1  UNL1       -0.0204
     12 C         142.3817  140.3043  168.5720 C.ar    1  UNL1        0.0102
     13 C         141.3485  140.4809  169.6450 C.ar    1  UNL1        0.0912
     14 CL        141.7702  140.8233  171.0432 Cl      1  UNL1       -0.0791
     15 C         137.6587  139.5950  170.4316 C.3     1  UNL1        0.2525
     16 O         138.8604  140.4918  170.3927 O.3     1  UNL1       -0.4706
     17 C         144.1090  143.9717  164.5731 C.3     1  UNL1        0.0294
     18 C         143.5859  144.8730  163.4942 C.3     1  UNL1        0.0666
     19 S         142.1179  144.9022  163.1877 S.3     1  UNL1       -0.0756
     20 C         141.2577  143.7202  163.5241 C.ar    1  UNL1        0.1933
     21 N         140.2320  143.6588  164.6169 N.ar    1  UNL1       -0.1220
     22 N         139.6126  142.2929  164.5950 N.ar    1  UNL1       -0.1250
     23 C         140.2554  141.5101  163.4886 C.ar    1  UNL1        0.2029
     24 N         141.2721  142.3923  162.8268 N.ar    1  UNL1       -0.2860
     25 C         142.1493  142.0131  161.6706 C.3     1  UNL1        0.1341
     26 C         139.9374  140.0939  163.1104 C.ar    1  UNL1        0.1964
     27 O         140.7922  138.8935  163.3901 O.2     1  UNL1       -0.4283
     28 C         140.0919  137.6870  162.8387 C.ar    1  UNL1        0.2849
     29 N         138.8042  138.1418  162.2183 N.ar    1  UNL1       -0.2085
     30 C         138.7087  139.6293  162.3862 C.ar    1  UNL1        0.1001
     31 C         137.5822  140.4995  161.9130 C.3     1  UNL1        0.0556
@<TRIPOS>BOND
     1    15    16    1
     2    16     8    1
     3     8     9   ar
     4     9    10   ar
     5    10    11   ar
     6    11     2    1
     7     2     3    1
     8     3     4    1
     9     4     5    1
    10     5     6    1
    11     6     1    1
    12     1    17    1
    13    17    18    1
    14    18    19    1
    15    19    20    1
    16    20    21   ar
    17    21    22   ar
    18    22    23   ar
    19    23    26    1
    20    26    27   ar
    21    27    28   ar
    22    28    29   ar
    23    29    30   ar
    24    30    31    1
    25    23    24   ar
    26    24    25    1
    27     6     7    1
    28    11    12   ar
    29    12    13   ar
    30    13    14    1
    31    13     8   ar
    32     4     2    1
    33    24    20   ar
    34     7     2    1
    35    30    26   ar
@<TRIPOS>MOLECULE
*****
 31 35 0 0 0
SMALL
GASTEIGER

@<TRIPOS>ATOM
      1 C         140.5275  145.1675  163.0402 C.3     1  UNL1        0.0730
      2 C         143.4056  143.1482  164.6846 C.3     1  UNL1        0.0350
      3 C         144.8971  143.0225  164.5862 C.3     1  UNL1        0.0072
      4 C         144.1657  143.9879  163.7013 C.3     1  UNL1        0.0214
      5 C         143.1801  144.8465  162.9655 C.3     1  UNL1        0.0724
      6 N         141.8108  144.5375  163.4942 N.3     1  UNL1       -0.2724
      7 C         141.9501  143.4879  164.5567 C.3     1  UNL1        0.0761
      8 C         142.8882  140.0782  167.9338 C.ar    1  UNL1        0.1491
      9 C         142.9167  141.5377  168.2787 C.ar    1  UNL1        0.0375
     10 C         143.0892  142.5610  167.1956 C.ar    1  UNL1       -0.0011
     11 C         143.2331  142.1249  165.7677 C.ar    1  UNL1       -0.0204
     12 C         143.2046  140.6653  165.4228 C.ar    1  UNL1        0.0102
     13 C         143.0321  139.6420  166.5059 C.ar    1  UNL1        0.0912
     14 CL        143.0036  138.1824  166.1610 Cl      1  UNL1       -0.0791
     15 C         141.6954  139.2688  170.0953 C.3     1  UNL1        0.2525
     16 O         142.7157  139.0548  169.0169 O.3     1  UNL1       -0.4706
     17 C         140.3288  145.5049  161.5922 C.3     1  UNL1        0.0294
     18 C         140.7861  144.5496  160.5300 C.3     1  UNL1        0.0666
     19 S         139.9393  143.3645  160.1721 S.3     1  UNL1       -0.0756
     20 C         139.1343  142.6706  161.2308 C.ar    1  UNL1        0.1933
     21 N         137.7080  142.9661  161.5891 N.ar    1  UNL1       -0.1220
     22 N         137.3065  142.0377  162.6968 N.ar    1  UNL1       -0.1250
     23 C         138.4847  141.1685  163.0230 C.ar    1  UNL1        0.2029
     24 N         139.6143  141.5597  162.1170 N.ar    1  UNL1       -0.2860
     25 C         140.9836  140.9474  162.1001 C.3     1  UNL1        0.1341
     26 C         138.5260  140.0963  164.0712 C.ar    1  UNL1        0.1964
     27 O         138.4766  140.3115  165.5549 O.2     1  UNL1       -0.4283
     28 C         138.5441  138.9689  166.2205 C.ar    1  UNL1        0.2849
     29 N         138.6352  137.9240  165.1481 N.ar    1  UNL1       -0.2085
     30 C         138.6240  138.6208  163.8198 C.ar    1  UNL1        0.1001
     31 C         138.6979  137.9583  162.4760 C.3     1  UNL1        0.0556
@<TRIPOS>BOND
     1    15    16    1
     2    16     8    1
     3     8     9   ar
     4     9    10   ar
     5    10    11   ar
     6    11     2    1
     7     2     3    1
     8     3     4    1
     9     4     5    1
    10     5     6    1
    11     6     1    1
    12     1    17    1
    13    17    18    1
    14    18    19    1
    15    19    20    1
    16    20    21   ar
    17    21    22   ar
    18    22    23   ar
    19    23    26    1
    20    26    27   ar
    21    27    28   ar
    22    28    29   ar
    23    29    30   ar
    24    30    31    1
    25    23    24   ar
    26    24    25    1
    27     6     7    1
    28    11    12   ar
    29    12    13   ar
    30    13    14    1
    31    13     8   ar
    32     4     2    1
    33    24    20   ar
    34     7     2    1
    35    30    26   ar
@<TRIPOS>MOLECULE
*****
 31 35 0 0 0
SMALL
GASTEIGER

@<TRIPOS>ATOM
      1 C         142.3250  144.3634  161.6580 C.3     1  UNL1        0.0730
      2 C         144.1003  141.8304  164.0027 C.3     1  UNL1        0.0350
      3 C         145.3984  141.0829  164.0824 C.3     1  UNL1        0.0072
      4 C         145.1330  142.0042  162.9288 C.3     1  UNL1        0.0214
      5 C         144.5937  142.9742  161.9198 C.3     1  UNL1        0.0724
      6 N         143.2276  143.4000  162.3701 N.3     1  UNL1       -0.2724
      7 C         142.9227  142.6930  163.6574 C.3     1  UNL1        0.0761
      8 C         142.3714  140.1785  167.8148 C.ar    1  UNL1        0.1491
      9 C         142.6128  139.2705  166.6455 C.ar    1  UNL1        0.0375
     10 C         143.1891  139.8212  165.3748 C.ar    1  UNL1       -0.0011
     11 C         143.5240  141.2798  165.2734 C.ar    1  UNL1       -0.0204
     12 C         143.2826  142.1877  166.4427 C.ar    1  UNL1        0.0102
     13 C         142.7063  141.6371  167.7134 C.ar    1  UNL1        0.0912
     14 CL        142.4648  142.5451  168.8828 Cl      1  UNL1       -0.0791
     15 C         142.6414  138.7782  169.9865 C.3     1  UNL1        0.2525
     16 O         141.7951  139.6278  169.0855 O.3     1  UNL1       -0.4706
     17 C         141.9439  144.1173  160.2283 C.3     1  UNL1        0.0294
     18 C         140.5351  144.3616  159.7749 C.3     1  UNL1        0.0666
     19 S         139.5867  143.2099  159.6200 S.3     1  UNL1       -0.0756
     20 C         138.9814  142.5683  160.8333 C.ar    1  UNL1        0.1933
     21 N         137.7145  142.9922  161.5154 N.ar    1  UNL1       -0.1220
     22 N         137.4868  142.0760  162.6811 N.ar    1  UNL1       -0.1250
     23 C         138.6130  141.0860  162.7194 C.ar    1  UNL1        0.2029
     24 N         139.5367  141.3902  161.5774 N.ar    1  UNL1       -0.2860
     25 C         140.7948  140.6468  161.2389 C.3     1  UNL1        0.1341
     26 C         138.7852  139.9849  163.7234 C.ar    1  UNL1        0.1964
     27 O         138.6053  138.5186  163.4634 O.2     1  UNL1       -0.4283
     28 C         138.8766  137.7843  164.7430 C.ar    1  UNL1        0.2849
     29 N         139.2241  138.7968  165.7937 N.ar    1  UNL1       -0.2085
     30 C         139.1676  140.1569  165.1636 C.ar    1  UNL1        0.1001
     31 C         139.4449  141.4601  165.8527 C.3     1  UNL1        0.0556
@<TRIPOS>BOND
     1    15    16    1
     2    16     8    1
     3     8     9   ar
     4     9    10   ar
     5    10    11   ar
     6    11     2    1
     7     2     3    1
     8     3     4    1
     9     4     5    1
    10     5     6    1
    11     6     1    1
    12     1    17    1
    13    17    18    1
    14    18    19    1
    15    19    20    1
    16    20    21   ar
    17    21    22   ar
    18    22    23   ar
    19    23    26    1
    20    26    27   ar
    21    27    28   ar
    22    28    29   ar
    23    29    30   ar
    24    30    31    1
    25    23    24   ar
    26    24    25    1
    27     6     7    1
    28    11    12   ar
    29    12    13   ar
    30    13    14    1
    31    13     8   ar
    32     4     2    1
    33    24    20   ar
    34     7     2    1
    35    30    26   ar
@<TRIPOS>MOLECULE
*****
 31 35 0 0 0
SMALL
GASTEIGER

@<TRIPOS>ATOM
      1 C         139.9611  145.0945  163.5361 C.3     1  UNL1        0.0730
      2 C         143.0597  143.3178  165.0552 C.3     1  UNL1        0.0350
      3 C         144.5553  143.4260  165.0175 C.3     1  UNL1        0.0072
      4 C         143.7139  144.3830  164.2261 C.3     1  UNL1        0.0214
      5 C         142.6328  145.1782  163.5561 C.3     1  UNL1        0.0724
      6 N         141.3104  144.6044  163.9711 N.3     1  UNL1       -0.2724
      7 C         141.5742  143.4547  164.8976 C.3     1  UNL1        0.0761
      8 C         142.9132  139.8006  167.8584 C.ar    1  UNL1        0.1491
      9 C         142.7994  141.1954  168.3985 C.ar    1  UNL1        0.0375
     10 C         142.8482  142.3678  167.4641 C.ar    1  UNL1       -0.0011
     11 C         143.0108  142.1454  165.9896 C.ar    1  UNL1       -0.0204
     12 C         143.1246  140.7507  165.4496 C.ar    1  UNL1        0.0102
     13 C         143.0758  139.5783  166.3840 C.ar    1  UNL1        0.0912
     14 CL        143.1896  138.1835  165.8439 Cl      1  UNL1       -0.0791
     15 C         142.5928  138.8432  170.2523 C.3     1  UNL1        0.2525
     16 O         142.8644  138.6282  168.7929 O.3     1  UNL1       -0.4706
     17 C         138.7198  144.5142  164.1464 C.3     1  UNL1        0.0294
     18 C         137.6462  143.9464  163.2661 C.3     1  UNL1        0.0666
     19 S         137.9989  142.9545  162.1976 S.3     1  UNL1       -0.0756
     20 C         138.9683  141.8481  162.4917 C.ar    1  UNL1        0.1933
     21 N         139.0095  141.0215  163.7427 N.ar    1  UNL1       -0.1220
     22 N         140.1332  140.0366  163.6106 N.ar    1  UNL1       -0.1250
     23 C         140.7864  140.2547  162.2780 C.ar    1  UNL1        0.2029
     24 N         140.0664  141.3742  161.5865 N.ar    1  UNL1       -0.2860
     25 C         140.3881  141.9234  160.2282 C.3     1  UNL1        0.1341
     26 C         141.9545  139.4878  161.7326 C.ar    1  UNL1        0.1964
     27 O         141.9381  138.0558  161.2862 O.2     1  UNL1       -0.4283
     28 C         143.3175  137.7012  160.8155 C.ar    1  UNL1        0.2849
     29 N         144.1864  138.9140  160.9710 N.ar    1  UNL1       -0.2085
     30 C         143.3440  140.0182  161.5378 C.ar    1  UNL1        0.1001
     31 C         143.8094  141.4086  161.8542 C.3     1  UNL1        0.0556
@<TRIPOS>BOND
     1    15    16    1
     2    16     8    1
     3     8     9   ar
     4     9    10   ar
     5    10    11   ar
     6    11     2    1
     7     2     3    1
     8     3     4    1
     9     4     5    1
    10     5     6    1
    11     6     1    1
    12     1    17    1
    13    17    18    1
    14    18    19    1
    15    19    20    1
    16    20    21   ar
    17    21    22   ar
    18    22    23   ar
    19    23    26    1
    20    26    27   ar
    21    27    28   ar
    22    28    29   ar
    23    29    30   ar
    24    30    31    1
    25    23    24   ar
    26    24    25    1
    27     6     7    1
    28    11    12   ar
    29    12    13   ar
    30    13    14    1
    31    13     8   ar
    32     4     2    1
    33    24    20   ar
    34     7     2    1
    35    30    26   ar
@<TRIPOS>MOLECULE
*****
 31 35 0 0 0
SMALL
GASTEIGER

@<TRIPOS>ATOM
      1 C         137.3619  141.5340  162.5444 C.3     1  UNL1        0.0730
      2 C         139.2688  139.0945  164.8849 C.3     1  UNL1        0.0350
      3 C         139.6882  137.6547  164.9158 C.3     1  UNL1        0.0072
      4 C         138.9243  138.1883  163.7404 C.3     1  UNL1        0.0214
      5 C         138.1681  138.9918  162.7243 C.3     1  UNL1        0.0724
      6 N         138.0451  140.3947  163.2408 N.3     1  UNL1       -0.2724
      7 C         138.7254  140.4582  164.5762 C.3     1  UNL1        0.0761
      8 C         141.0465  140.1881  168.8716 C.ar    1  UNL1        0.1491
      9 C         141.9407  139.9566  167.6898 C.ar    1  UNL1        0.0375
     10 C         141.3481  139.5921  166.3609 C.ar    1  UNL1       -0.0011
     11 C         139.8613  139.4590  166.2138 C.ar    1  UNL1       -0.0204
     12 C         138.9671  139.6905  167.3957 C.ar    1  UNL1        0.0102
     13 C         139.5597  140.0550  168.7246 C.ar    1  UNL1        0.0912
     14 CL        138.6654  140.2864  169.9064 Cl      1  UNL1       -0.0791
     15 C         142.9804  140.0111  170.5975 C.3     1  UNL1        0.2525
     16 O         141.6391  140.5526  170.2005 O.3     1  UNL1       -0.4706
     17 C         138.1713  142.5406  161.7818 C.3     1  UNL1        0.0294
     18 C         138.1921  142.5055  160.2823 C.3     1  UNL1        0.0666
     19 S         139.4973  142.5902  159.5482 S.3     1  UNL1       -0.0756
     20 C         140.7392  143.0178  160.2728 C.ar    1  UNL1        0.1933
     21 N         141.3755  144.3745  160.2068 N.ar    1  UNL1       -0.1220
     22 N         142.5923  144.3589  161.0838 N.ar    1  UNL1       -0.1250
     23 C         142.7079  142.9926  161.6919 C.ar    1  UNL1        0.2029
     24 N         141.5626  142.1637  161.1906 N.ar    1  UNL1       -0.2860
     25 C         141.2889  140.7321  161.5450 C.3     1  UNL1        0.1341
     26 C         143.7805  142.5354  162.6355 C.ar    1  UNL1        0.1964
     27 O         145.1542  142.0718  162.2508 O.2     1  UNL1       -0.4283
     28 C         145.8905  141.7113  163.5070 C.ar    1  UNL1        0.2849
     29 N         144.9718  141.9522  164.6680 N.ar    1  UNL1       -0.2085
     30 C         143.6678  142.4615  164.1294 C.ar    1  UNL1        0.1001
     31 C         142.4626  142.8319  164.9421 C.3     1  UNL1        0.0556
@<TRIPOS>BOND
     1    15    16    1
     2    16     8    1
     3     8     9   ar
     4     9    10   ar
     5    10    11   ar
     6    11     2    1
     7     2     3    1
     8     3     4    1
     9     4     5    1
    10     5     6    1
    11     6     1    1
    12     1    17    1
    13    17    18    1
    14    18    19    1
    15    19    20    1
    16    20    21   ar
    17    21    22   ar
    18    22    23   ar
    19    23    26    1
    20    26    27   ar
    21    27    28   ar
    22    28    29   ar
    23    29    30   ar
    24    30    31    1
    25    23    24   ar
    26    24    25    1
    27     6     7    1
    28    11    12   ar
    29    12    13   ar
    30    13    14    1
    31    13     8   ar
    32     4     2    1
    33    24    20   ar
    34     7     2    1
    35    30    26   ar
