@<TRIPOS>MOLECULE
*****
 36 40 0 0 0
SMALL
GASTEIGER

@<TRIPOS>ATOM
      1 C         141.5870  142.4894  160.3237 C.ar    1  UNL1        0.1432
      2 C         142.2313  143.2025  159.1721 C.ar    1  UNL1        0.0371
      3 C         143.5006  142.6703  158.5758 C.ar    1  UNL1        0.0047
      4 C         144.1256  141.4249  159.1311 C.ar    1  UNL1        0.0195
      5 C         143.4812  140.7118  160.2827 C.ar    1  UNL1        0.0887
      6 N         144.1062  139.4663  160.8381 N.ar    1  UNL1       -0.2238
      7 C         143.4619  138.7532  161.9897 C.ar    1  UNL1        0.2000
      8 N         142.1925  139.2854  162.5859 N.ar    1  UNL1       -0.2088
      9 C         141.5676  140.5308  162.0306 C.ar    1  UNL1        0.1383
     10 C         142.2119  141.2440  160.8790 C.ar    1  UNL1        0.0833
     11 N         140.2982  141.0630  162.6269 N.pl3   1  UNL1       -0.2978
     12 H         139.6658  141.5690  162.0673 H       1  UNL1        0.1536
     13 C         139.9925  140.8242  164.0759 C.ar    1  UNL1        0.0495
     14 C         140.6870  141.6320  165.1320 C.ar    1  UNL1        0.0162
     15 C         140.3812  141.3932  166.5809 C.ar    1  UNL1        0.0201
     16 C         139.3810  140.3467  166.9738 C.ar    1  UNL1        0.0799
     17 C         138.6865  139.5389  165.9178 C.ar    1  UNL1        0.0394
     18 C         137.7548  138.5836  166.6027 C.ar    1  UNL1        0.1216
     19 N         137.8734  138.8009  168.0822 N.ar    1  UNL1       -0.1673
     20 N         138.8785  139.8905  168.3115 N.ar    1  UNL1       -0.2448
     21 C         138.9923  139.7777  164.4688 C.ar    1  UNL1        0.0177
     22 C         139.3060  140.4294  169.6444 C.3     1  UNL1        0.1727
     23 C         140.6237  141.1328  169.7814 C.ar    1  UNL1        0.0836
     24 C         140.6635  142.6195  169.9770 C.ar    1  UNL1        0.0168
     25 C         141.9813  143.3229  170.1140 C.ar    1  UNL1        0.0029
     26 C         143.2592  142.5397  170.0553 C.ar    1  UNL1        0.0207
     27 C         143.2194  141.0531  169.8597 C.ar    1  UNL1        0.0985
     28 N         141.9016  140.3497  169.7228 N.ar    1  UNL1       -0.2462
     29 O         140.3176  143.0216  160.9200 O.3     1  UNL1       -0.4698
     30 C         140.2300  145.5786  160.4682 C.3     1  UNL1        0.0574
     31 C         140.2628  144.4302  161.4326 C.3     1  UNL1        0.2413
     32 C         140.2406  144.6904  162.9098 C.2     1  UNL1        0.2660
     33 O         141.4941  145.1163  163.6151 O.2     1  UNL1       -0.2710
     34 N         138.9651  144.5248  163.6815 N.am    1  UNL1       -0.2731
     35 C         138.9430  144.7850  165.1586 C.3     1  UNL1        0.1150
     36 C         137.7117  144.0989  162.9761 C.3     1  UNL1        0.1150
@<TRIPOS>BOND
     1    31    30    1
     2    31    29    1
     3    29     1    1
     4     1     2   ar
     5     2     3   ar
     6     3     4   ar
     7     4     5   ar
     8     5     6   ar
     9     6     7   ar
    10     7     8   ar
    11     8     9   ar
    12     9    11    1
    13    11    13    1
    14    13    14   ar
    15    14    15   ar
    16    15    16   ar
    17    16    17   ar
    18    17    18   ar
    19    18    19   ar
    20    19    20   ar
    21    20    22    1
    22    22    23    1
    23    23    24   ar
    24    24    25   ar
    25    25    26   ar
    26    26    27   ar
    27    27    28   ar
    28    17    21   ar
    29     9    10   ar
    30    31    32    1
    31    32    33    2
    32    32    34   am
    33    34    35    1
    34    34    36    1
    35    10     1   ar
    36    10     5   ar
    37    21    13   ar
    38    20    16   ar
    39    28    23   ar
    40    11    12    1
@<TRIPOS>MOLECULE
*****
 36 40 0 0 0
SMALL
GASTEIGER

@<TRIPOS>ATOM
      1 C         139.2374  141.8138  163.9731 C.ar    1  UNL1        0.1432
      2 C         138.0540  142.4553  164.6348 C.ar    1  UNL1        0.0371
      3 C         137.8880  143.9455  164.5934 C.ar    1  UNL1        0.0047
      4 C         138.9055  144.7942  163.8902 C.ar    1  UNL1        0.0195
      5 C         140.0889  144.1526  163.2285 C.ar    1  UNL1        0.0887
      6 N         141.1064  145.0013  162.5253 N.ar    1  UNL1       -0.2238
      7 C         142.2898  144.3598  161.8635 C.ar    1  UNL1        0.2000
      8 N         142.4558  142.8696  161.9050 N.ar    1  UNL1       -0.2088
      9 C         141.4383  142.0209  162.6081 C.ar    1  UNL1        0.1383
     10 C         140.2548  142.6624  163.2699 C.ar    1  UNL1        0.0833
     11 N         141.6043  140.5307  162.6496 N.pl3   1  UNL1       -0.2978
     12 H         141.6264  140.0617  163.5149 H       1  UNL1        0.1536
     13 C         141.7365  139.7550  161.3726 C.ar    1  UNL1        0.0495
     14 C         143.0399  139.0989  161.0251 C.ar    1  UNL1        0.0162
     15 C         143.1721  138.3232  159.7481 C.ar    1  UNL1        0.0201
     16 C         142.0009  138.2035  158.8186 C.ar    1  UNL1        0.0799
     17 C         140.6976  138.8595  159.1660 C.ar    1  UNL1        0.0394
     18 C         139.7243  138.5706  158.0619 C.ar    1  UNL1        0.1216
     19 N         140.4262  137.7360  157.0319 N.ar    1  UNL1       -0.1673
     20 N         141.8332  137.5091  157.4996 N.ar    1  UNL1       -0.2448
     21 C         140.5653  139.6353  160.4431 C.ar    1  UNL1        0.0177
     22 C         142.8875  136.7254  156.7755 C.3     1  UNL1        0.1727
     23 C         142.7158  135.2497  156.5691 C.ar    1  UNL1        0.0836
     24 C         141.7581  134.7438  155.5314 C.ar    1  UNL1        0.0168
     25 C         141.5864  133.2680  155.3251 C.ar    1  UNL1        0.0029
     26 C         142.3725  132.2980  156.1564 C.ar    1  UNL1        0.0207
     27 C         143.3303  132.8039  157.1941 C.ar    1  UNL1        0.0985
     28 N         143.5019  134.2797  157.4004 N.ar    1  UNL1       -0.2462
     29 O         139.4033  140.3235  164.0145 O.3     1  UNL1       -0.4698
     30 C         138.3811  139.0206  166.0163 C.3     1  UNL1        0.0574
     31 C         139.5710  139.6239  165.3307 C.3     1  UNL1        0.2413
     32 C         140.9286  139.5275  165.9613 C.2     1  UNL1        0.2660
     33 O         141.3391  140.5155  167.0127 O.2     1  UNL1       -0.2710
     34 N         141.8758  138.4432  165.5405 N.am    1  UNL1       -0.2731
     35 C         143.2334  138.3468  166.1711 C.3     1  UNL1        0.1150
     36 C         141.4654  137.4552  164.4890 C.3     1  UNL1        0.1150
@<TRIPOS>BOND
     1    31    30    1
     2    31    29    1
     3    29     1    1
     4     1     2   ar
     5     2     3   ar
     6     3     4   ar
     7     4     5   ar
     8     5     6   ar
     9     6     7   ar
    10     7     8   ar
    11     8     9   ar
    12     9    11    1
    13    11    13    1
    14    13    14   ar
    15    14    15   ar
    16    15    16   ar
    17    16    17   ar
    18    17    18   ar
    19    18    19   ar
    20    19    20   ar
    21    20    22    1
    22    22    23    1
    23    23    24   ar
    24    24    25   ar
    25    25    26   ar
    26    26    27   ar
    27    27    28   ar
    28    17    21   ar
    29     9    10   ar
    30    31    32    1
    31    32    33    2
    32    32    34   am
    33    34    35    1
    34    34    36    1
    35    10     1   ar
    36    10     5   ar
    37    21    13   ar
    38    20    16   ar
    39    28    23   ar
    40    11    12    1
@<TRIPOS>MOLECULE
*****
 36 40 0 0 0
SMALL
GASTEIGER

@<TRIPOS>ATOM
      1 C         141.3988  142.6214  159.7614 C.ar    1  UNL1        0.1432
      2 C         141.6833  143.0122  158.3415 C.ar    1  UNL1        0.0371
      3 C         141.2517  144.3555  157.8324 C.ar    1  UNL1        0.0047
      4 C         140.5355  145.3080  158.7432 C.ar    1  UNL1        0.0195
      5 C         140.2510  144.9172  160.1632 C.ar    1  UNL1        0.0887
      6 N         139.5347  145.8698  161.0741 N.ar    1  UNL1       -0.2238
      7 C         139.2502  145.4790  162.4940 C.ar    1  UNL1        0.2000
      8 N         139.6818  144.1357  163.0031 N.ar    1  UNL1       -0.2088
      9 C         140.3980  143.1831  162.0923 C.ar    1  UNL1        0.1383
     10 C         140.6826  143.5739  160.6723 C.ar    1  UNL1        0.0833
     11 N         140.8297  141.8398  162.6014 N.pl3   1  UNL1       -0.2978
     12 H         141.3586  141.2418  162.0253 H       1  UNL1        0.1536
     13 C         140.4554  141.4076  163.9881 C.ar    1  UNL1        0.0495
     14 C         141.1393  142.0196  165.1747 C.ar    1  UNL1        0.0162
     15 C         140.7650  141.5874  166.5614 C.ar    1  UNL1        0.0201
     16 C         139.7069  140.5432  166.7617 C.ar    1  UNL1        0.0799
     17 C         139.0230  139.9313  165.5752 C.ar    1  UNL1        0.0394
     18 C         138.0252  138.9315  166.0799 C.ar    1  UNL1        0.1216
     19 N         138.0924  138.9256  167.5784 N.ar    1  UNL1       -0.1673
     20 N         139.1317  139.9217  167.9997 N.ar    1  UNL1       -0.2448
     21 C         139.3973  140.3635  164.1883 C.ar    1  UNL1        0.0177
     22 C         139.5266  140.2403  169.4113 C.3     1  UNL1        0.1727
     23 C         140.7380  141.0834  169.6791 C.ar    1  UNL1        0.0836
     24 C         140.5873  142.5545  169.9301 C.ar    1  UNL1        0.0168
     25 C         141.7986  143.3976  170.1978 C.ar    1  UNL1        0.0029
     26 C         143.1607  142.7697  170.2146 C.ar    1  UNL1        0.0207
     27 C         143.3114  141.2985  169.9636 C.ar    1  UNL1        0.0985
     28 N         142.1000  140.4554  169.6958 N.ar    1  UNL1       -0.2462
     29 O         141.8305  141.2780  160.2705 O.3     1  UNL1       -0.4698
     30 C         143.7398  139.9295  159.1366 C.3     1  UNL1        0.0574
     31 C         143.2745  140.8783  160.2012 C.3     1  UNL1        0.2413
     32 C         144.2534  141.4274  161.1964 C.2     1  UNL1        0.2660
     33 O         144.9636  142.7185  160.9158 O.2     1  UNL1       -0.2710
     34 N         144.5219  140.6855  162.4720 N.am    1  UNL1       -0.2731
     35 C         145.5008  141.2346  163.4673 C.3     1  UNL1        0.1150
     36 C         143.8117  139.3945  162.7526 C.3     1  UNL1        0.1150
@<TRIPOS>BOND
     1    31    30    1
     2    31    29    1
     3    29     1    1
     4     1     2   ar
     5     2     3   ar
     6     3     4   ar
     7     4     5   ar
     8     5     6   ar
     9     6     7   ar
    10     7     8   ar
    11     8     9   ar
    12     9    11    1
    13    11    13    1
    14    13    14   ar
    15    14    15   ar
    16    15    16   ar
    17    16    17   ar
    18    17    18   ar
    19    18    19   ar
    20    19    20   ar
    21    20    22    1
    22    22    23    1
    23    23    24   ar
    24    24    25   ar
    25    25    26   ar
    26    26    27   ar
    27    27    28   ar
    28    17    21   ar
    29     9    10   ar
    30    31    32    1
    31    32    33    2
    32    32    34   am
    33    34    35    1
    34    34    36    1
    35    10     1   ar
    36    10     5   ar
    37    21    13   ar
    38    20    16   ar
    39    28    23   ar
    40    11    12    1
@<TRIPOS>MOLECULE
*****
 36 40 0 0 0
SMALL
GASTEIGER

@<TRIPOS>ATOM
      1 C         140.3199  140.2505  167.7774 C.ar    1  UNL1        0.1432
      2 C         139.0402  139.7669  168.3927 C.ar    1  UNL1        0.0371
      3 C         138.6747  140.1819  169.7870 C.ar    1  UNL1        0.0047
      4 C         139.5887  141.0805  170.5660 C.ar    1  UNL1        0.0195
      5 C         140.8684  141.5641  169.9507 C.ar    1  UNL1        0.0887
      6 N         141.7825  142.4628  170.7298 N.ar    1  UNL1       -0.2238
      7 C         143.0621  142.9464  170.1145 C.ar    1  UNL1        0.2000
      8 N         143.4277  142.5314  168.7202 N.ar    1  UNL1       -0.2088
      9 C         142.5136  141.6328  167.9411 C.ar    1  UNL1        0.1383
     10 C         141.2339  141.1491  168.5564 C.ar    1  UNL1        0.0833
     11 N         142.8792  141.2178  166.5468 N.pl3   1  UNL1       -0.2978
     12 H         143.4002  140.3957  166.3985 H       1  UNL1        0.1536
     13 C         142.4510  142.0553  165.3784 C.ar    1  UNL1        0.0495
     14 C         143.1452  141.9097  164.0567 C.ar    1  UNL1        0.0162
     15 C         142.7170  142.7472  162.8883 C.ar    1  UNL1        0.0201
     16 C         141.5945  143.7304  163.0416 C.ar    1  UNL1        0.0799
     17 C         140.9003  143.8760  164.3632 C.ar    1  UNL1        0.0394
     18 C         139.8343  144.9207  164.2143 C.ar    1  UNL1        0.1216
     19 N         139.8697  145.4207  162.8005 N.ar    1  UNL1       -0.1673
     20 N         140.9576  144.6851  162.0758 N.ar    1  UNL1       -0.2448
     21 C         141.3285  143.0385  165.5317 C.ar    1  UNL1        0.0177
     22 C         141.3412  144.8714  160.6377 C.3     1  UNL1        0.1727
     23 C         140.8965  143.8756  159.6078 C.ar    1  UNL1        0.0836
     24 C         141.8610  142.8497  159.0908 C.ar    1  UNL1        0.0168
     25 C         141.4162  141.8540  158.0609 C.ar    1  UNL1        0.0029
     26 C         140.0070  141.8841  157.5479 C.ar    1  UNL1        0.0207
     27 C         139.0425  142.9100  158.0650 C.ar    1  UNL1        0.0985
     28 N         139.4872  143.9057  159.0949 N.ar    1  UNL1       -0.2462
     29 O         140.6854  139.8355  166.3830 O.3     1  UNL1       -0.4698
     30 C         139.0722  138.0486  165.4061 C.3     1  UNL1        0.0574
     31 C         139.6116  139.4483  165.4099 C.3     1  UNL1        0.2413
     32 C         139.0772  140.4607  164.4406 C.2     1  UNL1        0.2660
     33 O         138.0177  141.4292  164.8757 O.2     1  UNL1       -0.2710
     34 N         139.6023  140.5045  163.0362 N.am    1  UNL1       -0.2731
     35 C         139.0679  141.5169  162.0669 C.3     1  UNL1        0.1150
     36 C         140.6618  139.5360  162.6011 C.3     1  UNL1        0.1150
@<TRIPOS>BOND
     1    31    30    1
     2    31    29    1
     3    29     1    1
     4     1     2   ar
     5     2     3   ar
     6     3     4   ar
     7     4     5   ar
     8     5     6   ar
     9     6     7   ar
    10     7     8   ar
    11     8     9   ar
    12     9    11    1
    13    11    13    1
    14    13    14   ar
    15    14    15   ar
    16    15    16   ar
    17    16    17   ar
    18    17    18   ar
    19    18    19   ar
    20    19    20   ar
    21    20    22    1
    22    22    23    1
    23    23    24   ar
    24    24    25   ar
    25    25    26   ar
    26    26    27   ar
    27    27    28   ar
    28    17    21   ar
    29     9    10   ar
    30    31    32    1
    31    32    33    2
    32    32    34   am
    33    34    35    1
    34    34    36    1
    35    10     1   ar
    36    10     5   ar
    37    21    13   ar
    38    20    16   ar
    39    28    23   ar
    40    11    12    1
@<TRIPOS>MOLECULE
*****
 36 40 0 0 0
SMALL
GASTEIGER

@<TRIPOS>ATOM
      1 C         138.7957  143.5740  157.0914 C.ar    1  UNL1        0.1432
      2 C         139.0485  144.0018  155.6761 C.ar    1  UNL1        0.0371
      3 C         140.2501  144.8378  155.3485 C.ar    1  UNL1        0.0047
      4 C         141.1989  145.2459  156.4362 C.ar    1  UNL1        0.0195
      5 C         140.9461  144.8181  157.8515 C.ar    1  UNL1        0.0887
      6 N         141.8949  145.2263  158.9393 N.ar    1  UNL1       -0.2238
      7 C         141.6421  144.7985  160.3546 C.ar    1  UNL1        0.2000
      8 N         140.4405  143.9625  160.6821 N.ar    1  UNL1       -0.2088
      9 C         139.4917  143.5543  159.5944 C.ar    1  UNL1        0.1383
     10 C         139.7445  143.9822  158.1791 C.ar    1  UNL1        0.0833
     11 N         138.2901  142.7184  159.9220 N.pl3   1  UNL1       -0.2978
     12 H         137.4990  142.7429  159.3366 H       1  UNL1        0.1536
     13 C         138.2939  141.8450  161.1415 C.ar    1  UNL1        0.0495
     14 C         137.9257  142.4202  162.4771 C.ar    1  UNL1        0.0162
     15 C         137.9295  141.5469  163.6966 C.ar    1  UNL1        0.0201
     16 C         138.3015  140.0984  163.5806 C.ar    1  UNL1        0.0799
     17 C         138.6697  139.5232  162.2452 C.ar    1  UNL1        0.0394
     18 C         138.9898  138.0706  162.4384 C.ar    1  UNL1        0.1216
     19 N         138.8195  137.7480  163.8933 N.ar    1  UNL1       -0.1673
     20 N         138.3941  139.0012  164.5993 N.ar    1  UNL1       -0.2448
     21 C         138.6659  140.3965  161.0255 C.ar    1  UNL1        0.0177
     22 C         138.1109  139.1340  166.0663 C.3     1  UNL1        0.1727
     23 C         139.2113  139.5178  167.0107 C.ar    1  UNL1        0.0836
     24 C         140.6039  139.7275  166.4943 C.ar    1  UNL1        0.0168
     25 C         141.7042  140.1113  167.4387 C.ar    1  UNL1        0.0029
     26 C         141.4120  140.2855  168.8996 C.ar    1  UNL1        0.0207
     27 C         140.0194  140.0758  169.4161 C.ar    1  UNL1        0.0985
     28 N         138.9191  139.6920  168.4716 N.ar    1  UNL1       -0.2462
     29 O         137.5941  142.7380  157.4189 O.3     1  UNL1       -0.4698
     30 C         138.5369  140.5355  156.4138 C.3     1  UNL1        0.0574
     31 C         137.3730  141.4334  156.7126 C.3     1  UNL1        0.2413
     32 C         135.9879  141.0265  156.3049 C.2     1  UNL1        0.2660
     33 O         135.1891  140.1054  157.1787 O.2     1  UNL1       -0.2710
     34 N         135.4017  141.5408  155.0236 N.am    1  UNL1       -0.2731
     35 C         134.0166  141.1340  154.6160 C.3     1  UNL1        0.1150
     36 C         136.2005  142.4620  154.1499 C.3     1  UNL1        0.1150
@<TRIPOS>BOND
     1    31    30    1
     2    31    29    1
     3    29     1    1
     4     1     2   ar
     5     2     3   ar
     6     3     4   ar
     7     4     5   ar
     8     5     6   ar
     9     6     7   ar
    10     7     8   ar
    11     8     9   ar
    12     9    11    1
    13    11    13    1
    14    13    14   ar
    15    14    15   ar
    16    15    16   ar
    17    16    17   ar
    18    17    18   ar
    19    18    19   ar
    20    19    20   ar
    21    20    22    1
    22    22    23    1
    23    23    24   ar
    24    24    25   ar
    25    25    26   ar
    26    26    27   ar
    27    27    28   ar
    28    17    21   ar
    29     9    10   ar
    30    31    32    1
    31    32    33    2
    32    32    34   am
    33    34    35    1
    34    34    36    1
    35    10     1   ar
    36    10     5   ar
    37    21    13   ar
    38    20    16   ar
    39    28    23   ar
    40    11    12    1
@<TRIPOS>MOLECULE
*****
 36 40 0 0 0
SMALL
GASTEIGER

@<TRIPOS>ATOM
      1 C         143.2638  139.4222  162.7418 C.ar    1  UNL1        0.1432
      2 C         144.1480  139.3117  163.9485 C.ar    1  UNL1        0.0371
      3 C         145.2585  140.2982  164.1575 C.ar    1  UNL1        0.0047
      4 C         145.4848  141.3952  163.1599 C.ar    1  UNL1        0.0195
      5 C         144.6006  141.5058  161.9533 C.ar    1  UNL1        0.0887
      6 N         144.8268  142.6029  160.9557 N.ar    1  UNL1       -0.2238
      7 C         143.9427  142.7135  159.7491 C.ar    1  UNL1        0.2000
      8 N         142.8322  141.7270  159.5400 N.ar    1  UNL1       -0.2088
      9 C         142.6059  140.6299  160.5376 C.ar    1  UNL1        0.1383
     10 C         143.4901  140.5193  161.7443 C.ar    1  UNL1        0.0833
     11 N         141.4955  139.6434  160.3285 N.pl3   1  UNL1       -0.2978
     12 H         140.7579  139.5875  160.9782 H       1  UNL1        0.1536
     13 C         141.5088  138.7421  159.1296 C.ar    1  UNL1        0.0495
     14 C         142.7500  137.9750  158.7817 C.ar    1  UNL1        0.0162
     15 C         142.7633  137.0737  157.5828 C.ar    1  UNL1        0.0201
     16 C         141.5354  136.9395  156.7317 C.ar    1  UNL1        0.0799
     17 C         140.2942  137.7066  157.0796 C.ar    1  UNL1        0.0394
     18 C         139.2438  137.3751  156.0615 C.ar    1  UNL1        0.1216
     19 N         139.8357  136.4030  155.0843 N.ar    1  UNL1       -0.1673
     20 N         141.2520  136.1338  155.4986 N.ar    1  UNL1       -0.2448
     21 C         140.2809  138.6079  158.2785 C.ar    1  UNL1        0.0177
     22 C         142.2158  135.2195  154.8020 C.3     1  UNL1        0.1727
     23 C         142.6246  133.9286  155.4472 C.ar    1  UNL1        0.0836
     24 C         143.8391  133.8810  156.3263 C.ar    1  UNL1        0.0168
     25 C         144.2480  132.5901  156.9714 C.ar    1  UNL1        0.0029
     26 C         143.4424  131.3466  156.7376 C.ar    1  UNL1        0.0207
     27 C         142.2279  131.3941  155.8585 C.ar    1  UNL1        0.0985
     28 N         141.8190  132.6851  155.2134 N.ar    1  UNL1       -0.2462
     29 O         142.1534  138.4357  162.5328 O.3     1  UNL1       -0.4698
     30 C         141.0255  137.1120  164.4630 C.3     1  UNL1        0.0574
     31 C         141.0635  138.3055  163.5551 C.3     1  UNL1        0.2413
     32 C         140.0116  139.3688  163.6696 C.2     1  UNL1        0.2660
     33 O         140.1989  140.5091  164.6259 O.2     1  UNL1       -0.2710
     34 N         138.7725  139.2916  162.8279 N.am    1  UNL1       -0.2731
     35 C         137.7206  140.3549  162.9424 C.3     1  UNL1        0.1150
     36 C         138.5852  138.1512  161.8717 C.3     1  UNL1        0.1150
@<TRIPOS>BOND
     1    31    30    1
     2    31    29    1
     3    29     1    1
     4     1     2   ar
     5     2     3   ar
     6     3     4   ar
     7     4     5   ar
     8     5     6   ar
     9     6     7   ar
    10     7     8   ar
    11     8     9   ar
    12     9    11    1
    13    11    13    1
    14    13    14   ar
    15    14    15   ar
    16    15    16   ar
    17    16    17   ar
    18    17    18   ar
    19    18    19   ar
    20    19    20   ar
    21    20    22    1
    22    22    23    1
    23    23    24   ar
    24    24    25   ar
    25    25    26   ar
    26    26    27   ar
    27    27    28   ar
    28    17    21   ar
    29     9    10   ar
    30    31    32    1
    31    32    33    2
    32    32    34   am
    33    34    35    1
    34    34    36    1
    35    10     1   ar
    36    10     5   ar
    37    21    13   ar
    38    20    16   ar
    39    28    23   ar
    40    11    12    1
@<TRIPOS>MOLECULE
*****
 36 40 0 0 0
SMALL
GASTEIGER

@<TRIPOS>ATOM
      1 C         143.0906  141.6149  164.2209 C.ar    1  UNL1        0.1432
      2 C         144.1001  142.1673  165.1830 C.ar    1  UNL1        0.0371
      3 C         144.3992  143.6372  165.1946 C.ar    1  UNL1        0.0047
      4 C         143.6888  144.5546  164.2440 C.ar    1  UNL1        0.0195
      5 C         142.6793  144.0022  163.2819 C.ar    1  UNL1        0.0887
      6 N         141.9688  144.9196  162.3313 N.ar    1  UNL1       -0.2238
      7 C         140.9593  144.3672  161.3692 C.ar    1  UNL1        0.2000
      8 N         140.6602  142.8974  161.3577 N.ar    1  UNL1       -0.2088
      9 C         141.3706  141.9800  162.3082 C.ar    1  UNL1        0.1383
     10 C         142.3802  142.5323  163.2704 C.ar    1  UNL1        0.0833
     11 N         141.0715  140.5101  162.2967 N.pl3   1  UNL1       -0.2978
     12 H         140.7050  140.0760  163.1007 H       1  UNL1        0.1536
     13 C         141.3308  139.7017  161.0601 C.ar    1  UNL1        0.0495
     14 C         142.6575  139.0283  160.8688 C.ar    1  UNL1        0.0162
     15 C         142.9168  138.2199  159.6322 C.ar    1  UNL1        0.0201
     16 C         141.8495  138.0847  158.5869 C.ar    1  UNL1        0.0799
     17 C         140.5229  138.7580  158.7782 C.ar    1  UNL1        0.0394
     18 C         139.6692  138.4480  157.5845 C.ar    1  UNL1        0.1216
     19 N         140.4683  137.5830  156.6553 N.ar    1  UNL1       -0.1673
     20 N         141.8158  137.3585  157.2749 N.ar    1  UNL1       -0.2448
     21 C         140.2635  139.5665  160.0149 C.ar    1  UNL1        0.0177
     22 C         142.9334  136.5498  156.6859 C.3     1  UNL1        0.1727
     23 C         142.7887  135.0638  156.5418 C.ar    1  UNL1        0.0836
     24 C         141.7952  134.4976  155.5710 C.ar    1  UNL1        0.0168
     25 C         141.6506  133.0116  155.4269 C.ar    1  UNL1        0.0029
     26 C         142.4993  132.0917  156.2535 C.ar    1  UNL1        0.0207
     27 C         143.4928  132.6579  157.2243 C.ar    1  UNL1        0.0985
     28 N         143.6375  134.1439  157.3684 N.ar    1  UNL1       -0.2462
     29 O         142.7915  140.1451  164.2094 O.3     1  UNL1       -0.4698
     30 C         143.3430  138.6167  166.2366 C.3     1  UNL1        0.0574
     31 C         142.3637  139.4568  165.4716 C.3     1  UNL1        0.2413
     32 C         140.9567  139.6087  165.9689 C.2     1  UNL1        0.2660
     33 O         140.6235  140.6843  166.9599 O.2     1  UNL1       -0.2710
     34 N         139.8829  138.6850  165.4752 N.am    1  UNL1       -0.2731
     35 C         138.4759  138.8369  165.9725 C.3     1  UNL1        0.1150
     36 C         140.2161  137.6094  164.4842 C.3     1  UNL1        0.1150
@<TRIPOS>BOND
     1    31    30    1
     2    31    29    1
     3    29     1    1
     4     1     2   ar
     5     2     3   ar
     6     3     4   ar
     7     4     5   ar
     8     5     6   ar
     9     6     7   ar
    10     7     8   ar
    11     8     9   ar
    12     9    11    1
    13    11    13    1
    14    13    14   ar
    15    14    15   ar
    16    15    16   ar
    17    16    17   ar
    18    17    18   ar
    19    18    19   ar
    20    19    20   ar
    21    20    22    1
    22    22    23    1
    23    23    24   ar
    24    24    25   ar
    25    25    26   ar
    26    26    27   ar
    27    27    28   ar
    28    17    21   ar
    29     9    10   ar
    30    31    32    1
    31    32    33    2
    32    32    34   am
    33    34    35    1
    34    34    36    1
    35    10     1   ar
    36    10     5   ar
    37    21    13   ar
    38    20    16   ar
    39    28    23   ar
    40    11    12    1
@<TRIPOS>MOLECULE
*****
 36 40 0 0 0
SMALL
GASTEIGER

@<TRIPOS>ATOM
      1 C         141.2963  144.3932  159.2953 C.ar    1  UNL1        0.1432
      2 C         140.2023  144.7441  158.3310 C.ar    1  UNL1        0.0371
      3 C         140.1734  144.1167  156.9688 C.ar    1  UNL1        0.0047
      4 C         141.2385  143.1383  156.5710 C.ar    1  UNL1        0.0195
      5 C         142.3325  142.7875  157.5353 C.ar    1  UNL1        0.0887
      6 N         143.3977  141.8091  157.1374 N.ar    1  UNL1       -0.2238
      7 C         144.4918  141.4582  158.1017 C.ar    1  UNL1        0.2000
      8 N         144.5207  142.0857  159.4638 N.ar    1  UNL1       -0.2088
      9 C         143.4556  143.0640  159.8617 C.ar    1  UNL1        0.1383
     10 C         142.3615  143.4149  158.8974 C.ar    1  UNL1        0.0833
     11 N         143.4845  143.6914  161.2239 N.pl3   1  UNL1       -0.2978
     12 H         143.7004  144.6470  161.3212 H       1  UNL1        0.1536
     13 C         143.1845  142.8630  162.4378 C.ar    1  UNL1        0.0495
     14 C         143.7530  143.2517  163.7704 C.ar    1  UNL1        0.0162
     15 C         143.4530  142.4232  164.9843 C.ar    1  UNL1        0.0201
     16 C         142.5845  141.2060  164.8656 C.ar    1  UNL1        0.0799
     17 C         142.0160  140.8172  163.5331 C.ar    1  UNL1        0.0394
     18 C         141.1988  139.5739  163.7227 C.ar    1  UNL1        0.1216
     19 N         141.2621  139.1941  165.1725 N.ar    1  UNL1       -0.1673
     20 N         142.1186  140.2028  165.8788 N.ar    1  UNL1       -0.2448
     21 C         142.3160  141.6457  162.3191 C.ar    1  UNL1        0.0177
     22 C         142.4508  140.2076  167.3415 C.3     1  UNL1        0.1727
     23 C         141.5824  140.9605  168.3054 C.ar    1  UNL1        0.0836
     24 C         140.4065  140.2820  168.9432 C.ar    1  UNL1        0.0168
     25 C         139.5381  141.0349  169.9070 C.ar    1  UNL1        0.0029
     26 C         139.8455  142.4663  170.2331 C.ar    1  UNL1        0.0207
     27 C         141.0215  143.1449  169.5954 C.ar    1  UNL1        0.0985
     28 N         141.8899  142.3920  168.6315 N.ar    1  UNL1       -0.2462
     29 O         141.3253  145.0207  160.6574 O.3     1  UNL1       -0.4698
     30 C         139.5336  146.5845  161.7035 C.3     1  UNL1        0.0574
     31 C         140.0502  145.2039  161.4260 C.3     1  UNL1        0.2413
     32 C         139.2918  144.0065  161.9171 C.2     1  UNL1        0.2660
     33 O         138.4139  143.2368  160.9755 O.2     1  UNL1       -0.2710
     34 N         139.4114  143.5789  163.3499 N.am    1  UNL1       -0.2731
     35 C         138.6530  142.3815  163.8410 C.3     1  UNL1        0.1150
     36 C         140.2894  144.3486  164.2916 C.3     1  UNL1        0.1150
@<TRIPOS>BOND
     1    31    30    1
     2    31    29    1
     3    29     1    1
     4     1     2   ar
     5     2     3   ar
     6     3     4   ar
     7     4     5   ar
     8     5     6   ar
     9     6     7   ar
    10     7     8   ar
    11     8     9   ar
    12     9    11    1
    13    11    13    1
    14    13    14   ar
    15    14    15   ar
    16    15    16   ar
    17    16    17   ar
    18    17    18   ar
    19    18    19   ar
    20    19    20   ar
    21    20    22    1
    22    22    23    1
    23    23    24   ar
    24    24    25   ar
    25    25    26   ar
    26    26    27   ar
    27    27    28   ar
    28    17    21   ar
    29     9    10   ar
    30    31    32    1
    31    32    33    2
    32    32    34   am
    33    34    35    1
    34    34    36    1
    35    10     1   ar
    36    10     5   ar
    37    21    13   ar
    38    20    16   ar
    39    28    23   ar
    40    11    12    1
@<TRIPOS>MOLECULE
*****
 36 40 0 0 0
SMALL
GASTEIGER

@<TRIPOS>ATOM
      1 C         139.3487  143.9530  156.8361 C.ar    1  UNL1        0.1432
      2 C         139.3132  145.2096  156.0178 C.ar    1  UNL1        0.0371
      3 C         138.1814  145.4516  155.0637 C.ar    1  UNL1        0.0047
      4 C         137.0850  144.4371  154.9278 C.ar    1  UNL1        0.0195
      5 C         137.1204  143.1804  155.7460 C.ar    1  UNL1        0.0887
      6 N         136.0240  142.1658  155.6101 N.ar    1  UNL1       -0.2238
      7 C         136.0595  140.9091  156.4284 C.ar    1  UNL1        0.2000
      8 N         137.1913  140.6671  157.3825 N.ar    1  UNL1       -0.2088
      9 C         138.2877  141.6817  157.5184 C.ar    1  UNL1        0.1383
     10 C         138.2523  142.9384  156.7002 C.ar    1  UNL1        0.0833
     11 N         139.4195  141.4396  158.4726 N.pl3   1  UNL1       -0.2978
     12 H         140.3438  141.3898  158.1374 H       1  UNL1        0.1536
     13 C         139.1430  141.2734  159.9374 C.ar    1  UNL1        0.0495
     14 C         139.4661  139.9769  160.6193 C.ar    1  UNL1        0.0162
     15 C         139.1896  139.8107  162.0842 C.ar    1  UNL1        0.0201
     16 C         138.5900  140.9409  162.8672 C.ar    1  UNL1        0.0799
     17 C         138.2669  142.2373  162.1855 C.ar    1  UNL1        0.0394
     18 C         137.6860  143.1672  163.2090 C.ar    1  UNL1        0.1216
     19 N         137.6501  142.4455  164.5235 N.ar    1  UNL1       -0.1673
     20 N         138.2088  141.0696  164.3123 N.ar    1  UNL1       -0.2448
     21 C         138.5434  142.4036  160.7205 C.ar    1  UNL1        0.0177
     22 C         138.3598  140.0086  165.3618 C.3     1  UNL1        0.1727
     23 C         139.6664  139.8447  166.0801 C.ar    1  UNL1        0.0836
     24 C         140.8305  139.2054  165.3829 C.ar    1  UNL1        0.0168
     25 C         142.1371  139.0416  166.1012 C.ar    1  UNL1        0.0029
     26 C         142.2796  139.5170  167.5166 C.ar    1  UNL1        0.0207
     27 C         141.1155  140.1563  168.2138 C.ar    1  UNL1        0.0985
     28 N         139.8089  140.3202  167.4955 N.ar    1  UNL1       -0.2462
     29 O         140.4805  143.7109  157.7902 O.3     1  UNL1       -0.4698
     30 C         142.1208  145.7255  157.8115 C.3     1  UNL1        0.0574
     31 C         141.1124  144.8639  158.5121 C.3     1  UNL1        0.2413
     32 C         140.7361  145.1553  159.9346 C.2     1  UNL1        0.2660
     33 O         139.6213  146.1131  160.2343 O.2     1  UNL1       -0.2710
     34 N         141.4744  144.4889  161.0574 N.am    1  UNL1       -0.2731
     35 C         141.0981  144.7803  162.4799 C.3     1  UNL1        0.1150
     36 C         142.5892  143.5311  160.7577 C.3     1  UNL1        0.1150
@<TRIPOS>BOND
     1    31    30    1
     2    31    29    1
     3    29     1    1
     4     1     2   ar
     5     2     3   ar
     6     3     4   ar
     7     4     5   ar
     8     5     6   ar
     9     6     7   ar
    10     7     8   ar
    11     8     9   ar
    12     9    11    1
    13    11    13    1
    14    13    14   ar
    15    14    15   ar
    16    15    16   ar
    17    16    17   ar
    18    17    18   ar
    19    18    19   ar
    20    19    20   ar
    21    20    22    1
    22    22    23    1
    23    23    24   ar
    24    24    25   ar
    25    25    26   ar
    26    26    27   ar
    27    27    28   ar
    28    17    21   ar
    29     9    10   ar
    30    31    32    1
    31    32    33    2
    32    32    34   am
    33    34    35    1
    34    34    36    1
    35    10     1   ar
    36    10     5   ar
    37    21    13   ar
    38    20    16   ar
    39    28    23   ar
    40    11    12    1
