@<TRIPOS>MOLECULE
*****
 30 31 0 0 0
SMALL
GASTEIGER

@<TRIPOS>ATOM
      1 C         139.7023  140.0657  167.7210 C.ar    1  UNL1        0.0764
      2 C         140.4035  140.8556  168.7862 C.ar    1  UNL1        0.0522
      3 C         139.8519  140.8890  170.1807 C.ar    1  UNL1        0.1516
      4 N         138.5991  140.1326  170.5101 N.ar    1  UNL1       -0.1329
      5 N         137.8980  139.3427  169.4449 N.ar    1  UNL1       -0.1409
      6 C         138.4495  139.3093  168.0504 C.ar    1  UNL1        0.1691
      7 C         137.7483  138.5194  166.9853 C.2     1  UNL1        0.2635
      8 N         137.0966  137.2125  167.3273 N.am    1  UNL1       -0.3240
      9 O         137.6989  139.0365  165.5781 O.2     1  UNL1       -0.2686
     10 H         137.1290  136.8731  168.2509 H       1  UNL1        0.1453
     11 H         136.6364  136.6940  166.6283 H       1  UNL1        0.1453
     12 N         140.2538  140.0322  166.3265 N.pl3   1  UNL1       -0.2965
     13 H         140.2919  139.1815  165.8325 H       1  UNL1        0.1537
     14 C         142.7141  142.7953  164.8903 C.ar    1  UNL1        0.0873
     15 N         142.2205  141.5326  165.5320 N.ar    1  UNL1       -0.2327
     16 C         140.7474  141.2950  165.6847 C.ar    1  UNL1        0.1319
     17 C         139.7677  142.3202  165.1956 C.ar    1  UNL1        0.0367
     18 C         140.2613  143.5829  164.5539 C.ar    1  UNL1        0.0337
     19 C         141.7345  143.8205  164.4012 C.ar    1  UNL1        0.1537
     20 F         142.2280  145.0833  163.7594 F       1  UNL1       -0.2029
     21 C         144.9037  143.9400  165.6934 C.3     1  UNL1        0.0064
     22 C         144.1873  143.0328  164.7376 C.3     1  UNL1        0.0426
     23 C         144.9440  142.3631  163.6291 C.3     1  UNL1        0.0064
     24 N         140.5530  141.6788  171.2458 N.pl3   1  UNL1       -0.3155
     25 H         140.0346  142.0934  171.9729 H       1  UNL1        0.1483
     26 C         142.0440  141.8370  171.2032 C.3     1  UNL1        0.1052
     27 C         142.6540  143.0069  170.4894 C.3     1  UNL1        0.0866
     28 N         143.4713  144.0074  171.2515 N.3     1  UNL1       -0.3197
     29 H         142.8725  144.5035  171.9115 H       1  UNL1        0.1189
     30 H         143.8857  144.6745  170.6006 H       1  UNL1        0.1189
@<TRIPOS>BOND
     1    21    22    1
     2    22    23    1
     3    22    14    1
     4    14    15   ar
     5    15    16   ar
     6    16    12    1
     7    12     1    1
     8     1     2   ar
     9     2     3   ar
    10     3    24    1
    11    24    26    1
    12    26    27    1
    13    27    28    1
    14     3     4   ar
    15     4     5   ar
    16     5     6   ar
    17     6     7    1
    18     7     8   am
    19     7     9    2
    20    16    17   ar
    21    17    18   ar
    22    18    19   ar
    23    19    20    1
    24    19    14   ar
    25     6     1   ar
    26    12    13    1
    27    24    25    1
    28    28    29    1
    29    28    30    1
    30     8    10    1
    31     8    11    1
@<TRIPOS>MOLECULE
*****
 30 31 0 0 0
SMALL
GASTEIGER

@<TRIPOS>ATOM
      1 C         139.8437  140.0169  167.7204 C.ar    1  UNL1        0.0764
      2 C         140.4809  140.8163  168.8182 C.ar    1  UNL1        0.0522
      3 C         139.8176  140.9091  170.1604 C.ar    1  UNL1        0.1516
      4 N         138.5171  140.2026  170.4048 N.ar    1  UNL1       -0.1329
      5 N         137.8800  139.4033  169.3071 N.ar    1  UNL1       -0.1409
      6 C         138.5433  139.3104  167.9649 C.ar    1  UNL1        0.1691
      7 C         137.9060  138.5110  166.8671 C.2     1  UNL1        0.2635
      8 N         137.1632  137.2492  167.1923 N.am    1  UNL1       -0.3240
      9 O         138.0117  138.9736  165.4441 O.2     1  UNL1       -0.2686
     10 H         137.0938  136.9456  168.1263 H       1  UNL1        0.1453
     11 H         136.7450  136.7245  166.4718 H       1  UNL1        0.1453
     12 N         140.5069  139.9240  166.3783 N.pl3   1  UNL1       -0.2965
     13 H         140.6613  139.0438  165.9653 H       1  UNL1        0.1537
     14 C         140.3659  143.5074  164.6784 C.ar    1  UNL1        0.0873
     15 N         139.9379  142.2590  165.3913 N.ar    1  UNL1       -0.2327
     16 C         140.9350  141.1724  165.6653 C.ar    1  UNL1        0.1319
     17 C         142.3601  141.3342  165.2263 C.ar    1  UNL1        0.0367
     18 C         142.7882  142.5826  164.5133 C.ar    1  UNL1        0.0337
     19 C         141.7910  143.6692  164.2393 C.ar    1  UNL1        0.1537
     20 F         142.2191  144.9176  163.5263 F       1  UNL1       -0.2029
     21 C         138.4994  145.1108  165.5121 C.3     1  UNL1        0.0064
     22 C         139.3688  144.5940  164.4044 C.3     1  UNL1        0.0426
     23 C         139.2410  145.1637  163.0228 C.3     1  UNL1        0.0064
     24 N         140.4547  141.7084  171.2582 N.pl3   1  UNL1       -0.3155
     25 H         139.9014  142.0741  171.9857 H       1  UNL1        0.1483
     26 C         141.9350  141.9506  171.2474 C.3     1  UNL1        0.1052
     27 C         142.4928  143.1555  170.5494 C.3     1  UNL1        0.0866
     28 N         143.5199  144.0092  171.2321 N.3     1  UNL1       -0.3197
     29 H         143.1005  144.4615  172.0445 H       1  UNL1        0.1189
     30 H         143.8567  144.7204  170.5831 H       1  UNL1        0.1189
@<TRIPOS>BOND
     1    21    22    1
     2    22    23    1
     3    22    14    1
     4    14    15   ar
     5    15    16   ar
     6    16    12    1
     7    12     1    1
     8     1     2   ar
     9     2     3   ar
    10     3    24    1
    11    24    26    1
    12    26    27    1
    13    27    28    1
    14     3     4   ar
    15     4     5   ar
    16     5     6   ar
    17     6     7    1
    18     7     8   am
    19     7     9    2
    20    16    17   ar
    21    17    18   ar
    22    18    19   ar
    23    19    20    1
    24    19    14   ar
    25     6     1   ar
    26    12    13    1
    27    24    25    1
    28    28    29    1
    29    28    30    1
    30     8    10    1
    31     8    11    1
@<TRIPOS>MOLECULE
*****
 30 31 0 0 0
SMALL
GASTEIGER

@<TRIPOS>ATOM
      1 C         140.2488  139.2278  165.3394 C.ar    1  UNL1        0.0764
      2 C         140.0064  139.7808  166.7125 C.ar    1  UNL1        0.0522
      3 C         138.8651  139.2652  167.5380 C.ar    1  UNL1        0.1516
      4 N         137.9662  138.1964  166.9904 N.ar    1  UNL1       -0.1329
      5 N         138.2086  137.6434  165.6173 N.ar    1  UNL1       -0.1409
      6 C         139.3499  138.1591  164.7918 C.ar    1  UNL1        0.1691
      7 C         139.5924  137.6061  163.4187 C.2     1  UNL1        0.2635
      8 N         138.5080  137.6655  162.3840 N.am    1  UNL1       -0.3240
      9 O         140.9192  136.9937  163.0803 O.2     1  UNL1       -0.2686
     10 H         137.6371  138.0674  162.6061 H       1  UNL1        0.1453
     11 H         138.6671  137.3025  161.4828 H       1  UNL1        0.1453
     12 N         141.3901  139.7435  164.5139 N.pl3   1  UNL1       -0.2965
     13 H         141.9726  139.1135  164.0312 H       1  UNL1        0.1537
     14 C         140.7462  143.6473  164.2047 C.ar    1  UNL1        0.0873
     15 N         140.4924  142.1717  164.2947 N.ar    1  UNL1       -0.2327
     16 C         141.6440  141.2192  164.4239 C.ar    1  UNL1        0.1319
     17 C         143.0492  141.7422  164.4630 C.ar    1  UNL1        0.0367
     18 C         143.3030  143.2179  164.3730 C.ar    1  UNL1        0.0337
     19 C         142.1514  144.1704  164.2438 C.ar    1  UNL1        0.1537
     20 F         142.4053  145.6461  164.1538 F       1  UNL1       -0.2029
     21 C         138.7159  144.8790  165.2586 C.3     1  UNL1        0.0064
     22 C         139.5947  144.5999  164.0755 C.3     1  UNL1        0.0426
     23 C         139.3219  145.2733  162.7633 C.3     1  UNL1        0.0064
     24 N         138.6227  139.8181  168.9111 N.pl3   1  UNL1       -0.3155
     25 H         137.7779  139.6240  169.3779 H       1  UNL1        0.1483
     26 C         139.6673  140.6670  169.5730 C.3     1  UNL1        0.1052
     27 C         140.5910  140.0633  170.5891 C.3     1  UNL1        0.0866
     28 N         140.7683  140.7206  171.9257 N.3     1  UNL1       -0.3197
     29 H         141.2198  141.6268  171.8017 H       1  UNL1        0.1189
     30 H         141.3491  140.1299  172.5207 H       1  UNL1        0.1189
@<TRIPOS>BOND
     1    21    22    1
     2    22    23    1
     3    22    14    1
     4    14    15   ar
     5    15    16   ar
     6    16    12    1
     7    12     1    1
     8     1     2   ar
     9     2     3   ar
    10     3    24    1
    11    24    26    1
    12    26    27    1
    13    27    28    1
    14     3     4   ar
    15     4     5   ar
    16     5     6   ar
    17     6     7    1
    18     7     8   am
    19     7     9    2
    20    16    17   ar
    21    17    18   ar
    22    18    19   ar
    23    19    20    1
    24    19    14   ar
    25     6     1   ar
    26    12    13    1
    27    24    25    1
    28    28    29    1
    29    28    30    1
    30     8    10    1
    31     8    11    1
@<TRIPOS>MOLECULE
*****
 30 31 0 0 0
SMALL
GASTEIGER

@<TRIPOS>ATOM
      1 C         142.0163  144.3824  161.0604 C.ar    1  UNL1        0.0764
      2 C         141.4742  144.4451  162.4576 C.ar    1  UNL1        0.0522
      3 C         140.1698  145.1355  162.7257 C.ar    1  UNL1        0.1516
      4 N         139.4075  145.7632  161.5965 N.ar    1  UNL1       -0.1329
      5 N         139.9496  145.7004  160.1993 N.ar    1  UNL1       -0.1409
      6 C         141.2540  145.0100  159.9313 C.ar    1  UNL1        0.1691
      7 C         141.7962  144.9473  158.5340 C.2     1  UNL1        0.2635
      8 N         142.2175  146.2062  157.8358 N.am    1  UNL1       -0.3240
      9 O         141.9169  143.6256  157.8351 O.2     1  UNL1       -0.2686
     10 H         142.1383  147.0737  158.2946 H       1  UNL1        0.1453
     11 H         142.5733  146.1650  156.9188 H       1  UNL1        0.1453
     12 N         143.3207  143.6920  160.7923 N.pl3   1  UNL1       -0.2965
     13 H         143.8441  143.9224  159.9909 H       1  UNL1        0.1537
     14 C         143.8656  140.1894  162.5771 C.ar    1  UNL1        0.0873
     15 N         143.3586  141.2309  161.6241 N.ar    1  UNL1       -0.2327
     16 C         143.8278  142.6505  161.7454 C.ar    1  UNL1        0.1319
     17 C         144.8040  143.0285  162.8196 C.ar    1  UNL1        0.0367
     18 C         145.3110  141.9871  163.7726 C.ar    1  UNL1        0.0337
     19 C         144.8418  140.5675  163.6513 C.ar    1  UNL1        0.1537
     20 F         145.3488  139.5260  164.6044 F       1  UNL1       -0.2029
     21 C         142.3737  138.2336  163.4131 C.3     1  UNL1        0.0064
     22 C         143.3964  138.7699  162.4558 C.3     1  UNL1        0.0426
     23 C         143.9499  137.8866  161.3772 C.3     1  UNL1        0.0064
     24 N         139.6276  145.1983  164.1229 N.pl3   1  UNL1       -0.3155
     25 H         140.0991  145.7215  164.8108 H       1  UNL1        0.1483
     26 C         138.3672  144.4638  164.4719 C.3     1  UNL1        0.1052
     27 C         137.9469  143.2704  163.6662 C.3     1  UNL1        0.0866
     28 N         137.3808  143.4564  162.2896 N.3     1  UNL1       -0.3197
     29 H         136.4867  143.9433  162.3527 H       1  UNL1        0.1189
     30 H         137.2417  142.5451  161.8532 H       1  UNL1        0.1189
@<TRIPOS>BOND
     1    21    22    1
     2    22    23    1
     3    22    14    1
     4    14    15   ar
     5    15    16   ar
     6    16    12    1
     7    12     1    1
     8     1     2   ar
     9     2     3   ar
    10     3    24    1
    11    24    26    1
    12    26    27    1
    13    27    28    1
    14     3     4   ar
    15     4     5   ar
    16     5     6   ar
    17     6     7    1
    18     7     8   am
    19     7     9    2
    20    16    17   ar
    21    17    18   ar
    22    18    19   ar
    23    19    20    1
    24    19    14   ar
    25     6     1   ar
    26    12    13    1
    27    24    25    1
    28    28    29    1
    29    28    30    1
    30     8    10    1
    31     8    11    1
@<TRIPOS>MOLECULE
*****
 30 31 0 0 0
SMALL
GASTEIGER

@<TRIPOS>ATOM
      1 C         142.9823  143.1060  164.5361 C.ar    1  UNL1        0.0764
      2 C         141.9966  144.2163  164.3222 C.ar    1  UNL1        0.0522
      3 C         141.9117  144.8972  162.9883 C.ar    1  UNL1        0.1516
      4 N         142.8125  144.4678  161.8684 N.ar    1  UNL1       -0.1329
      5 N         143.7982  143.3576  162.0823 N.ar    1  UNL1       -0.1409
      6 C         143.8830  142.6767  163.4162 C.ar    1  UNL1        0.1691
      7 C         144.8688  141.5664  163.6301 C.2     1  UNL1        0.2635
      8 N         146.3380  141.8287  163.4807 N.am    1  UNL1       -0.3240
      9 O         144.3851  140.1937  163.9934 O.2     1  UNL1       -0.2686
     10 H         146.6555  142.7296  163.2422 H       1  UNL1        0.1453
     11 H         146.9849  141.1000  163.6211 H       1  UNL1        0.1453
     12 N         143.0672  142.4251  165.8699 N.pl3   1  UNL1       -0.2965
     13 H         143.8934  142.4857  166.4019 H       1  UNL1        0.1537
     14 C         139.8815  140.0609  165.9788 C.ar    1  UNL1        0.0873
     15 N         141.0554  140.8341  165.4555 N.ar    1  UNL1       -0.2327
     16 C         141.8932  141.6518  166.3933 C.ar    1  UNL1        0.1319
     17 C         141.5570  141.6963  167.8545 C.ar    1  UNL1        0.0367
     18 C         140.3831  140.9230  168.3778 C.ar    1  UNL1        0.0337
     19 C         139.5453  140.1053  167.4399 C.ar    1  UNL1        0.1537
     20 F         138.3713  139.3320  167.9633 F       1  UNL1       -0.2029
     21 C         138.1008  139.9217  164.0921 C.3     1  UNL1        0.0064
     22 C         139.0437  139.2432  165.0410 C.3     1  UNL1        0.0426
     23 C         139.1489  137.7469  165.0521 C.3     1  UNL1        0.0064
     24 N         140.9261  146.0075  162.7743 N.pl3   1  UNL1       -0.3155
     25 H         141.1562  146.9277  163.0380 H       1  UNL1        0.1483
     26 C         139.5897  145.7157  162.1587 C.3     1  UNL1        0.1052
     27 C         138.5996  144.8565  162.8878 C.3     1  UNL1        0.0866
     28 N         137.7248  143.9071  162.1240 N.3     1  UNL1       -0.3197
     29 H         137.0867  144.4361  161.5296 H       1  UNL1        0.1189
     30 H         137.1873  143.3386  162.7785 H       1  UNL1        0.1189
@<TRIPOS>BOND
     1    21    22    1
     2    22    23    1
     3    22    14    1
     4    14    15   ar
     5    15    16   ar
     6    16    12    1
     7    12     1    1
     8     1     2   ar
     9     2     3   ar
    10     3    24    1
    11    24    26    1
    12    26    27    1
    13    27    28    1
    14     3     4   ar
    15     4     5   ar
    16     5     6   ar
    17     6     7    1
    18     7     8   am
    19     7     9    2
    20    16    17   ar
    21    17    18   ar
    22    18    19   ar
    23    19    20    1
    24    19    14   ar
    25     6     1   ar
    26    12    13    1
    27    24    25    1
    28    28    29    1
    29    28    30    1
    30     8    10    1
    31     8    11    1
@<TRIPOS>MOLECULE
*****
 30 31 0 0 0
SMALL
GASTEIGER

@<TRIPOS>ATOM
      1 C         143.3047  142.8782  164.0126 C.ar    1  UNL1        0.0764
      2 C         142.3387  144.0256  164.0390 C.ar    1  UNL1        0.0522
      3 C         142.0513  144.7931  162.7827 C.ar    1  UNL1        0.1516
      4 N         142.7298  144.4132  161.4999 N.ar    1  UNL1       -0.1329
      5 N         143.6957  143.2659  161.4736 N.ar    1  UNL1       -0.1409
      6 C         143.9831  142.4984  162.7299 C.ar    1  UNL1        0.1691
      7 C         144.9491  141.3511  162.7035 C.2     1  UNL1        0.2635
      8 N         144.6330  140.1229  161.9025 N.am    1  UNL1       -0.3240
      9 O         146.2311  141.4321  163.4780 O.2     1  UNL1       -0.2686
     10 H         143.7916  140.0698  161.3942 H       1  UNL1        0.1453
     11 H         145.2670  139.3699  161.8852 H       1  UNL1        0.1453
     12 N         143.5921  142.1107  165.2689 N.pl3   1  UNL1       -0.2965
     13 H         144.5195  141.8759  165.5010 H       1  UNL1        0.1537
     14 C         141.1857  141.9362  168.4200 C.ar    1  UNL1        0.0873
     15 N         142.3114  142.3458  167.5172 N.ar    1  UNL1       -0.2327
     16 C         142.4663  141.7011  166.1717 C.ar    1  UNL1        0.1319
     17 C         141.4955  140.6469  165.7289 C.ar    1  UNL1        0.0367
     18 C         140.3698  140.2373  166.6317 C.ar    1  UNL1        0.0337
     19 C         140.2149  140.8820  167.9772 C.ar    1  UNL1        0.1537
     20 F         139.0891  140.4724  168.8800 F       1  UNL1       -0.2029
     21 C         140.4506  143.9597  169.8742 C.3     1  UNL1        0.0064
     22 C         141.0309  142.5808  169.7655 C.3     1  UNL1        0.0426
     23 C         141.4563  141.8466  171.0023 C.3     1  UNL1        0.0064
     24 N         141.0854  145.9403  162.8091 N.pl3   1  UNL1       -0.3155
     25 H         141.3658  146.8116  163.1716 H       1  UNL1        0.1483
     26 C         139.6923  145.7601  162.2830 C.3     1  UNL1        0.1052
     27 C         139.0165  144.4253  162.3915 C.3     1  UNL1        0.0866
     28 N         137.5394  144.3506  162.6419 N.3     1  UNL1       -0.3197
     29 H         137.3325  144.7225  163.5689 H       1  UNL1        0.1189
     30 H         137.2344  143.3787  162.5897 H       1  UNL1        0.1189
@<TRIPOS>BOND
     1    21    22    1
     2    22    23    1
     3    22    14    1
     4    14    15   ar
     5    15    16   ar
     6    16    12    1
     7    12     1    1
     8     1     2   ar
     9     2     3   ar
    10     3    24    1
    11    24    26    1
    12    26    27    1
    13    27    28    1
    14     3     4   ar
    15     4     5   ar
    16     5     6   ar
    17     6     7    1
    18     7     8   am
    19     7     9    2
    20    16    17   ar
    21    17    18   ar
    22    18    19   ar
    23    19    20    1
    24    19    14   ar
    25     6     1   ar
    26    12    13    1
    27    24    25    1
    28    28    29    1
    29    28    30    1
    30     8    10    1
    31     8    11    1
@<TRIPOS>MOLECULE
*****
 30 31 0 0 0
SMALL
GASTEIGER

@<TRIPOS>ATOM
      1 C         138.0206  140.7762  164.0003 C.ar    1  UNL1        0.0764
      2 C         137.8478  142.2659  163.9700 C.ar    1  UNL1        0.0522
      3 C         137.7672  142.9850  162.6561 C.ar    1  UNL1        0.1516
      4 N         137.8592  142.2144  161.3724 N.ar    1  UNL1       -0.1329
      5 N         138.0319  140.7247  161.4027 N.ar    1  UNL1       -0.1409
      6 C         138.1126  140.0056  162.7167 C.ar    1  UNL1        0.1691
      7 C         138.2853  138.5158  162.7469 C.2     1  UNL1        0.2635
      8 N         137.5983  137.6602  161.7243 N.am    1  UNL1       -0.3240
      9 O         139.1451  137.8817  163.7999 O.2     1  UNL1       -0.2686
     10 H         137.0340  138.0764  161.0332 H       1  UNL1        0.1453
     11 H         137.7116  136.6825  161.7442 H       1  UNL1        0.1453
     12 N         138.1012  140.0571  165.3142 N.pl3   1  UNL1       -0.2965
     13 H         137.3481  139.5005  165.6178 H       1  UNL1        0.1537
     14 C         141.8500  140.7688  166.4052 C.ar    1  UNL1        0.0873
     15 N         140.6218  140.6398  165.5539 N.ar    1  UNL1       -0.2327
     16 C         139.3295  140.1860  166.1656 C.ar    1  UNL1        0.1319
     17 C         139.2655  139.8612  167.6285 C.ar    1  UNL1        0.0367
     18 C         140.4937  139.9902  168.4798 C.ar    1  UNL1        0.0337
     19 C         141.7860  140.4440  167.8681 C.ar    1  UNL1        0.1537
     20 F         143.0143  140.5729  168.7195 F       1  UNL1       -0.2029
     21 C         143.9228  140.2922  164.9130 C.3     1  UNL1        0.0064
     22 C         143.1423  141.2226  165.7935 C.3     1  UNL1        0.0426
     23 C         143.6540  142.6067  166.0622 C.3     1  UNL1        0.0064
     24 N         137.5944  144.4747  162.6258 N.pl3   1  UNL1       -0.3155
     25 H         136.6909  144.8657  162.6286 H       1  UNL1        0.1483
     26 C         138.7984  145.3687  162.5912 C.3     1  UNL1        0.1052
     27 C         139.9623  145.0256  161.7092 C.3     1  UNL1        0.0866
     28 N         139.7378  144.7097  160.2602 N.3     1  UNL1       -0.3197
     29 H         139.2020  143.8455  160.1797 H       1  UNL1        0.1189
     30 H         140.6376  144.5966  159.7935 H       1  UNL1        0.1189
@<TRIPOS>BOND
     1    21    22    1
     2    22    23    1
     3    22    14    1
     4    14    15   ar
     5    15    16   ar
     6    16    12    1
     7    12     1    1
     8     1     2   ar
     9     2     3   ar
    10     3    24    1
    11    24    26    1
    12    26    27    1
    13    27    28    1
    14     3     4   ar
    15     4     5   ar
    16     5     6   ar
    17     6     7    1
    18     7     8   am
    19     7     9    2
    20    16    17   ar
    21    17    18   ar
    22    18    19   ar
    23    19    20    1
    24    19    14   ar
    25     6     1   ar
    26    12    13    1
    27    24    25    1
    28    28    29    1
    29    28    30    1
    30     8    10    1
    31     8    11    1
@<TRIPOS>MOLECULE
*****
 30 31 0 0 0
SMALL
GASTEIGER

@<TRIPOS>ATOM
      1 C         138.2696  139.9402  164.4851 C.ar    1  UNL1        0.0764
      2 C         138.2908  139.6056  163.0230 C.ar    1  UNL1        0.0522
      3 C         138.6261  138.2132  162.5771 C.ar    1  UNL1        0.1516
      4 N         138.9403  137.1554  163.5932 N.ar    1  UNL1       -0.1329
      5 N         138.9192  137.4900  165.0552 N.ar    1  UNL1       -0.1409
      6 C         138.5838  138.8824  165.5012 C.ar    1  UNL1        0.1691
      7 C         138.5627  139.2170  166.9633 C.2     1  UNL1        0.2635
      8 N         139.5629  140.1827  167.5262 N.am    1  UNL1       -0.3240
      9 O         137.5413  138.5858  167.8624 O.2     1  UNL1       -0.2686
     10 H         140.2332  140.5969  166.9361 H       1  UNL1        0.1453
     11 H         139.5490  140.4023  168.4858 H       1  UNL1        0.1453
     12 N         137.9343  141.3325  164.9311 N.pl3   1  UNL1       -0.2965
     13 H         137.0668  141.5170  165.3584 H       1  UNL1        0.1537
     14 C         141.3697  143.3111  164.7489 C.ar    1  UNL1        0.0873
     15 N         140.3832  142.1999  164.9539 N.ar    1  UNL1       -0.2327
     16 C         138.9208  142.4438  164.7261 C.ar    1  UNL1        0.1319
     17 C         138.4449  143.7988  164.2932 C.ar    1  UNL1        0.0367
     18 C         139.4314  144.9099  164.0882 C.ar    1  UNL1        0.0337
     19 C         140.8938  144.6661  164.3160 C.ar    1  UNL1        0.1537
     20 F         141.8804  145.7773  164.1110 F       1  UNL1       -0.2029
     21 C         143.8259  143.4150  163.9084 C.3     1  UNL1        0.0064
     22 C         142.8321  143.0672  164.9768 C.3     1  UNL1        0.0426
     23 C         143.3008  142.4756  166.2730 C.3     1  UNL1        0.0064
     24 N         138.6473  137.8786  161.1150 N.pl3   1  UNL1       -0.3155
     25 H         137.8697  137.4412  160.6989 H       1  UNL1        0.1483
     26 C         139.8533  138.2104  160.2871 C.3     1  UNL1        0.1052
     27 C         141.1917  138.3756  160.9441 C.3     1  UNL1        0.0866
     28 N         141.7414  137.2823  161.8115 N.3     1  UNL1       -0.3197
     29 H         141.1560  137.1792  162.6404 H       1  UNL1        0.1189
     30 H         142.6926  137.5184  162.0942 H       1  UNL1        0.1189
@<TRIPOS>BOND
     1    21    22    1
     2    22    23    1
     3    22    14    1
     4    14    15   ar
     5    15    16   ar
     6    16    12    1
     7    12     1    1
     8     1     2   ar
     9     2     3   ar
    10     3    24    1
    11    24    26    1
    12    26    27    1
    13    27    28    1
    14     3     4   ar
    15     4     5   ar
    16     5     6   ar
    17     6     7    1
    18     7     8   am
    19     7     9    2
    20    16    17   ar
    21    17    18   ar
    22    18    19   ar
    23    19    20    1
    24    19    14   ar
    25     6     1   ar
    26    12    13    1
    27    24    25    1
    28    28    29    1
    29    28    30    1
    30     8    10    1
    31     8    11    1
@<TRIPOS>MOLECULE
*****
 30 31 0 0 0
SMALL
GASTEIGER

@<TRIPOS>ATOM
      1 C         139.5007  141.2368  165.9612 C.ar    1  UNL1        0.0764
      2 C         139.8949  141.1042  167.4024 C.ar    1  UNL1        0.0522
      3 C         139.3241  139.9964  168.2372 C.ar    1  UNL1        0.1516
      4 N         138.3591  139.0211  167.6308 N.ar    1  UNL1       -0.1329
      5 N         137.9649  139.1537  166.1896 N.ar    1  UNL1       -0.1409
      6 C         138.5357  140.2615  165.3548 C.ar    1  UNL1        0.1691
      7 C         138.1415  140.3940  163.9136 C.2     1  UNL1        0.2635
      8 N         136.9519  141.2255  163.5348 N.am    1  UNL1       -0.3240
      9 O         138.9370  139.6951  162.8511 O.2     1  UNL1       -0.2686
     10 H         136.4298  141.6842  164.2321 H       1  UNL1        0.1453
     11 H         136.6932  141.3125  162.5889 H       1  UNL1        0.1453
     12 N         140.0715  142.3446  165.1263 N.pl3   1  UNL1       -0.2965
     13 H         139.4976  143.0922  164.8416 H       1  UNL1        0.1537
     14 C         143.6215  140.9750  163.9989 C.ar    1  UNL1        0.0873
     15 N         142.1765  141.0063  164.3998 N.ar    1  UNL1       -0.2327
     16 C         141.5166  142.3134  164.7254 C.ar    1  UNL1        0.1319
     17 C         142.3017  143.5892  164.6500 C.ar    1  UNL1        0.0367
     18 C         143.7468  143.5579  164.2491 C.ar    1  UNL1        0.0337
     19 C         144.4067  142.2508  163.9235 C.ar    1  UNL1        0.1537
     20 F         145.8518  142.2196  163.5225 F       1  UNL1       -0.2029
     21 C         145.2163  139.0334  164.6599 C.3     1  UNL1        0.0064
     22 C         144.2814  139.6679  163.6733 C.3     1  UNL1        0.0426
     23 C         144.0065  138.9952  162.3611 C.3     1  UNL1        0.0064
     24 N         139.7183  139.8638  169.6784 N.pl3   1  UNL1       -0.3155
     25 H         139.0348  139.6694  170.3598 H       1  UNL1        0.1483
     26 C         141.1538  140.0274  170.0814 C.3     1  UNL1        0.1052
     27 C         141.5815  141.2371  170.8585 C.3     1  UNL1        0.0866
     28 N         140.6093  141.9252  171.7702 N.3     1  UNL1       -0.3197
     29 H         139.8563  142.3348  171.2174 H       1  UNL1        0.1189
     30 H         141.0904  142.6609  172.2874 H       1  UNL1        0.1189
@<TRIPOS>BOND
     1    21    22    1
     2    22    23    1
     3    22    14    1
     4    14    15   ar
     5    15    16   ar
     6    16    12    1
     7    12     1    1
     8     1     2   ar
     9     2     3   ar
    10     3    24    1
    11    24    26    1
    12    26    27    1
    13    27    28    1
    14     3     4   ar
    15     4     5   ar
    16     5     6   ar
    17     6     7    1
    18     7     8   am
    19     7     9    2
    20    16    17   ar
    21    17    18   ar
    22    18    19   ar
    23    19    20    1
    24    19    14   ar
    25     6     1   ar
    26    12    13    1
    27    24    25    1
    28    28    29    1
    29    28    30    1
    30     8    10    1
    31     8    11    1
