@<TRIPOS>MOLECULE
*****
 32 35 0 0 0
SMALL
GASTEIGER

@<TRIPOS>ATOM
      1 O         138.5937  139.7372  164.3398 O.2     1  UNL1       -0.2701
      2 C         139.4402  139.3041  165.4999 C.2     1  UNL1        0.2474
      3 N         140.8662  138.8958  165.2767 N.am    1  UNL1       -0.2986
      4 H         141.4218  138.6115  166.0381 H       1  UNL1        0.1498
      5 C         141.4457  138.9206  163.8933 C.3     1  UNL1        0.1200
      6 C         141.5489  137.6515  163.1005 C.3     1  UNL1        0.2250
      7 O         142.1284  137.6764  161.7172 O.3     1  UNL1       -0.4740
      8 C         142.6048  138.9704  161.1268 C.ar    1  UNL1        0.1346
      9 C         143.1843  138.9952  159.7434 C.ar    1  UNL1        0.0366
     10 C         143.6607  140.2892  159.1530 C.ar    1  UNL1        0.0031
     11 C         143.5575  141.5584  159.9459 C.ar    1  UNL1       -0.0001
     12 C         142.9780  141.5335  161.3292 C.ar    1  UNL1        0.0005
     13 C         142.5016  140.2395  161.9196 C.ar    1  UNL1        0.0136
     14 C         141.9221  140.2146  163.3029 C.3     1  UNL1        0.0528
     15 C         142.8748  142.8026  162.1220 C.ar    1  UNL1        0.0190
     16 C         144.0015  143.2195  163.0202 C.ar    1  UNL1        0.0031
     17 C         143.8983  144.4887  163.8131 C.ar    1  UNL1        0.0207
     18 C         142.6685  145.3410  163.7077 C.ar    1  UNL1        0.0989
     19 N         141.5418  144.9241  162.8094 N.ar    1  UNL1       -0.2423
     20 C         141.6450  143.6550  162.0166 C.ar    1  UNL1        0.0988
     21 C         138.8607  139.2792  166.8832 C.ar    1  UNL1        0.0727
     22 C         139.5201  140.0523  167.9866 C.ar    1  UNL1        0.0109
     23 C         138.9405  140.0274  169.3699 C.ar    1  UNL1        0.0579
     24 C         137.7016  139.2295  169.6497 C.ar    1  UNL1        0.2251
     25 N         137.0422  138.4564  168.5463 N.ar    1  UNL1       -0.2100
     26 C         137.6217  138.4813  167.1631 C.ar    1  UNL1        0.1065
     27 O         137.1220  139.2046  171.0331 O.3     1  UNL1       -0.4509
     28 C         136.0070  138.2568  171.3622 C.3     1  UNL1        0.3095
     29 C         136.0328  137.4865  172.6490 C.3     1  UNL1        0.4381
     30 F         136.0586  136.7161  173.9358 F       1  UNL1       -0.1663
     31 F         134.9428  138.3607  173.1942 F       1  UNL1       -0.1663
     32 F         137.1229  136.6122  172.1037 F       1  UNL1       -0.1663
@<TRIPOS>BOND
     1     1     2    2
     2     2     3   am
     3     5     3    1
     4     5     6    1
     5     6     7    1
     6     7     8    1
     7     8     9   ar
     8     9    10   ar
     9    10    11   ar
    10    11    12   ar
    11    12    15    1
    12    15    16   ar
    13    16    17   ar
    14    17    18   ar
    15    18    19   ar
    16    19    20   ar
    17    12    13   ar
    18    13    14    1
    19     2    21    1
    20    21    22   ar
    21    22    23   ar
    22    23    24   ar
    23    24    27    1
    24    27    28    1
    25    28    29    1
    26    29    30    1
    27    29    31    1
    28    29    32    1
    29    24    25   ar
    30    25    26   ar
    31    14     5    1
    32    26    21   ar
    33    13     8   ar
    34    20    15   ar
    35     3     4    1
@<TRIPOS>MOLECULE
*****
 32 35 0 0 0
SMALL
GASTEIGER

@<TRIPOS>ATOM
      1 O         143.8110  140.0949  162.0678 O.2     1  UNL1       -0.2701
      2 C         143.1262  140.1794  160.7359 C.2     1  UNL1        0.2474
      3 N         141.7137  139.6972  160.5869 N.am    1  UNL1       -0.2986
      4 H         141.2642  139.7527  159.7128 H       1  UNL1        0.1498
      5 C         140.9859  139.1305  161.7698 C.3     1  UNL1        0.1200
      6 C         140.9719  137.6488  162.0024 C.3     1  UNL1        0.2250
      7 O         140.2442  137.0821  163.1853 O.3     1  UNL1       -0.4740
      8 C         139.5304  137.9972  164.1356 C.ar    1  UNL1        0.1346
      9 C         138.8026  137.4305  165.3185 C.ar    1  UNL1        0.0366
     10 C         138.0888  138.3456  166.2688 C.ar    1  UNL1        0.0031
     11 C         138.1028  139.8275  166.0362 C.ar    1  UNL1       -0.0001
     12 C         138.8305  140.3941  164.8533 C.ar    1  UNL1        0.0005
     13 C         139.5443  139.4790  163.9030 C.ar    1  UNL1        0.0136
     14 C         140.2721  140.0456  162.7201 C.3     1  UNL1        0.0528
     15 C         138.8445  141.8759  164.6207 C.ar    1  UNL1        0.0190
     16 C         137.7533  142.5193  163.8175 C.ar    1  UNL1        0.0031
     17 C         137.7673  144.0012  163.5849 C.ar    1  UNL1        0.0207
     18 C         138.8725  144.8395  164.1556 C.ar    1  UNL1        0.0989
     19 N         139.9637  144.1960  164.9588 N.ar    1  UNL1       -0.2423
     20 C         139.9497  142.7143  165.1914 C.ar    1  UNL1        0.0988
     21 C         143.8540  140.7462  159.5530 C.ar    1  UNL1        0.0727
     22 C         144.4063  142.1396  159.6093 C.ar    1  UNL1        0.0109
     23 C         145.1341  142.7062  158.4264 C.ar    1  UNL1        0.0579
     24 C         145.3095  141.8795  157.1872 C.ar    1  UNL1        0.2251
     25 N         144.7572  140.4860  157.1309 N.ar    1  UNL1       -0.2100
     26 C         144.0294  139.9194  158.3138 C.ar    1  UNL1        0.1065
     27 O         146.0373  142.4462  156.0043 O.3     1  UNL1       -0.4509
     28 C         146.9592  141.5754  155.2033 C.3     1  UNL1        0.3095
     29 C         148.4353  141.8420  155.2081 C.3     1  UNL1        0.4381
     30 F         149.9115  142.1087  155.2129 F       1  UNL1       -0.1663
     31 F         148.3664  142.1977  156.6636 F       1  UNL1       -0.1663
     32 F         148.5043  141.4863  153.7525 F       1  UNL1       -0.1663
@<TRIPOS>BOND
     1     1     2    2
     2     2     3   am
     3     5     3    1
     4     5     6    1
     5     6     7    1
     6     7     8    1
     7     8     9   ar
     8     9    10   ar
     9    10    11   ar
    10    11    12   ar
    11    12    15    1
    12    15    16   ar
    13    16    17   ar
    14    17    18   ar
    15    18    19   ar
    16    19    20   ar
    17    12    13   ar
    18    13    14    1
    19     2    21    1
    20    21    22   ar
    21    22    23   ar
    22    23    24   ar
    23    24    27    1
    24    27    28    1
    25    28    29    1
    26    29    30    1
    27    29    31    1
    28    29    32    1
    29    24    25   ar
    30    25    26   ar
    31    14     5    1
    32    26    21   ar
    33    13     8   ar
    34    20    15   ar
    35     3     4    1
@<TRIPOS>MOLECULE
*****
 32 35 0 0 0
SMALL
GASTEIGER

@<TRIPOS>ATOM
      1 O         143.8926  142.2795  162.9671 O.2     1  UNL1       -0.2701
      2 C         143.7403  141.0640  162.1014 C.2     1  UNL1        0.2474
      3 N         143.2861  139.7671  162.7027 N.am    1  UNL1       -0.2986
      4 H         143.1861  138.9694  162.1344 H       1  UNL1        0.1498
      5 C         142.9842  139.6855  164.1698 C.3     1  UNL1        0.1200
      6 C         143.8153  138.8087  165.0588 C.3     1  UNL1        0.2250
      7 O         143.5134  138.7271  166.5258 O.3     1  UNL1       -0.4740
      8 C         142.3805  139.5224  167.1038 C.ar    1  UNL1        0.1346
      9 C         142.0787  139.4409  168.5709 C.ar    1  UNL1        0.0366
     10 C         140.9458  140.2362  169.1488 C.ar    1  UNL1        0.0031
     11 C         140.1147  141.1130  168.2597 C.ar    1  UNL1       -0.0001
     12 C         140.4166  141.1946  166.7927 C.ar    1  UNL1        0.0005
     13 C         141.5495  140.3993  166.2147 C.ar    1  UNL1        0.0136
     14 C         141.8513  140.4808  164.7477 C.3     1  UNL1        0.0528
     15 C         139.5855  142.0714  165.9036 C.ar    1  UNL1        0.0190
     16 C         139.8494  143.5469  165.8469 C.ar    1  UNL1        0.0031
     17 C         139.0182  144.4238  164.9577 C.ar    1  UNL1        0.0207
     18 C         137.9234  143.8251  164.1254 C.ar    1  UNL1        0.0989
     19 N         137.6596  142.3496  164.1821 N.ar    1  UNL1       -0.2423
     20 C         138.4906  141.4727  165.0712 C.ar    1  UNL1        0.0988
     21 C         144.0421  141.1456  160.6343 C.ar    1  UNL1        0.0727
     22 C         144.4910  142.4439  160.0320 C.ar    1  UNL1        0.0109
     23 C         144.7928  142.5254  158.5649 C.ar    1  UNL1        0.0579
     24 C         144.6457  141.3086  157.7002 C.ar    1  UNL1        0.2251
     25 N         144.1969  140.0103  158.3025 N.ar    1  UNL1       -0.2100
     26 C         143.8950  139.9288  159.7695 C.ar    1  UNL1        0.1065
     27 O         144.9476  141.3902  156.2331 O.3     1  UNL1       -0.4509
     28 C         146.0034  142.3326  155.7359 C.3     1  UNL1        0.3095
     29 C         147.4435  141.9132  155.7365 C.3     1  UNL1        0.4381
     30 F         148.8837  141.4937  155.7372 F       1  UNL1       -0.1663
     31 F         147.2167  141.1323  154.4761 F       1  UNL1       -0.1663
     32 F         147.6703  142.6940  156.9970 F       1  UNL1       -0.1663
@<TRIPOS>BOND
     1     1     2    2
     2     2     3   am
     3     5     3    1
     4     5     6    1
     5     6     7    1
     6     7     8    1
     7     8     9   ar
     8     9    10   ar
     9    10    11   ar
    10    11    12   ar
    11    12    15    1
    12    15    16   ar
    13    16    17   ar
    14    17    18   ar
    15    18    19   ar
    16    19    20   ar
    17    12    13   ar
    18    13    14    1
    19     2    21    1
    20    21    22   ar
    21    22    23   ar
    22    23    24   ar
    23    24    27    1
    24    27    28    1
    25    28    29    1
    26    29    30    1
    27    29    31    1
    28    29    32    1
    29    24    25   ar
    30    25    26   ar
    31    14     5    1
    32    26    21   ar
    33    13     8   ar
    34    20    15   ar
    35     3     4    1
@<TRIPOS>MOLECULE
*****
 32 35 0 0 0
SMALL
GASTEIGER

@<TRIPOS>ATOM
      1 O         140.4723  141.1509  158.7295 O.2     1  UNL1       -0.2701
      2 C         140.4585  139.7336  159.2207 C.2     1  UNL1        0.2474
      3 N         139.8844  139.4127  160.5688 N.am    1  UNL1       -0.2986
      4 H         139.8754  138.4826  160.8912 H       1  UNL1        0.1498
      5 C         139.3242  140.5090  161.4257 C.3     1  UNL1        0.1200
      6 C         137.8476  140.7725  161.4362 C.3     1  UNL1        0.2250
      7 O         137.2874  141.8687  162.2931 O.3     1  UNL1       -0.4740
      8 C         138.2038  142.7016  163.1396 C.ar    1  UNL1        0.1346
      9 C         137.6436  143.7979  163.9965 C.ar    1  UNL1        0.0366
     10 C         138.5600  144.6308  164.8430 C.ar    1  UNL1        0.0031
     11 C         140.0367  144.3673  164.8325 C.ar    1  UNL1       -0.0001
     12 C         140.5969  143.2710  163.9756 C.ar    1  UNL1        0.0005
     13 C         139.6805  142.4382  163.1291 C.ar    1  UNL1        0.0136
     14 C         140.2406  141.3419  162.2722 C.3     1  UNL1        0.0528
     15 C         142.0735  143.0076  163.9651 C.ar    1  UNL1        0.0190
     16 C         142.6712  142.0478  164.9508 C.ar    1  UNL1        0.0031
     17 C         144.1479  141.7844  164.9403 C.ar    1  UNL1        0.0207
     18 C         145.0269  142.4808  163.9441 C.ar    1  UNL1        0.0989
     19 N         144.4292  143.4406  162.9584 N.ar    1  UNL1       -0.2423
     20 C         142.9526  143.7040  162.9689 C.ar    1  UNL1        0.0988
     21 C         141.0187  138.6373  158.3638 C.ar    1  UNL1        0.0727
     22 C         140.1732  138.0175  157.2910 C.ar    1  UNL1        0.0109
     23 C         140.7334  136.9213  156.4341 C.ar    1  UNL1        0.0579
     24 C         142.1393  136.4448  156.6500 C.ar    1  UNL1        0.2251
     25 N         142.9848  137.0646  157.7228 N.ar    1  UNL1       -0.2100
     26 C         142.4246  138.1609  158.5796 C.ar    1  UNL1        0.1065
     27 O         142.6995  135.3485  155.7931 O.3     1  UNL1       -0.4509
     28 C         143.6780  134.3700  156.3718 C.3     1  UNL1        0.3095
     29 C         143.2023  133.0346  156.8621 C.3     1  UNL1        0.4381
     30 F         142.7265  131.6991  157.3524 F       1  UNL1       -0.1663
     31 F         144.4627  132.8785  157.6601 F       1  UNL1       -0.1663
     32 F         141.9418  133.1907  156.0640 F       1  UNL1       -0.1663
@<TRIPOS>BOND
     1     1     2    2
     2     2     3   am
     3     5     3    1
     4     5     6    1
     5     6     7    1
     6     7     8    1
     7     8     9   ar
     8     9    10   ar
     9    10    11   ar
    10    11    12   ar
    11    12    15    1
    12    15    16   ar
    13    16    17   ar
    14    17    18   ar
    15    18    19   ar
    16    19    20   ar
    17    12    13   ar
    18    13    14    1
    19     2    21    1
    20    21    22   ar
    21    22    23   ar
    22    23    24   ar
    23    24    27    1
    24    27    28    1
    25    28    29    1
    26    29    30    1
    27    29    31    1
    28    29    32    1
    29    24    25   ar
    30    25    26   ar
    31    14     5    1
    32    26    21   ar
    33    13     8   ar
    34    20    15   ar
    35     3     4    1
@<TRIPOS>MOLECULE
*****
 32 35 0 0 0
SMALL
GASTEIGER

@<TRIPOS>ATOM
      1 O         140.3322  141.8735  166.7967 O.2     1  UNL1       -0.2701
      2 C         140.1654  140.3914  166.9559 C.2     1  UNL1        0.2474
      3 N         141.0153  139.4506  166.1542 N.am    1  UNL1       -0.2986
      4 H         140.9058  138.4778  166.2587 H       1  UNL1        0.1498
      5 C         142.0321  139.9921  165.1934 C.3     1  UNL1        0.1200
      6 C         143.4024  139.3853  165.1307 C.3     1  UNL1        0.2250
      7 O         144.4191  139.9267  164.1699 O.3     1  UNL1       -0.4740
      8 C         144.0655  141.0749  163.2719 C.ar    1  UNL1        0.1346
      9 C         145.0822  141.6164  162.3111 C.ar    1  UNL1        0.0366
     10 C         144.7286  142.7646  161.4130 C.ar    1  UNL1        0.0031
     11 C         143.3582  143.3714  161.4758 C.ar    1  UNL1       -0.0001
     12 C         142.3415  142.8300  162.4365 C.ar    1  UNL1        0.0005
     13 C         142.6951  141.6817  163.3346 C.ar    1  UNL1        0.0136
     14 C         141.6785  141.1403  164.2954 C.3     1  UNL1        0.0528
     15 C         140.9712  143.4368  162.4993 C.ar    1  UNL1        0.0190
     16 C         140.6454  144.4453  163.5607 C.ar    1  UNL1        0.0031
     17 C         139.2750  145.0521  163.6234 C.ar    1  UNL1        0.0207
     18 C         138.2305  144.6504  162.6247 C.ar    1  UNL1        0.0989
     19 N         138.5563  143.6418  161.5632 N.ar    1  UNL1       -0.2423
     20 C         139.9266  143.0350  161.5005 C.ar    1  UNL1        0.0988
     21 C         139.1486  139.8499  167.9167 C.ar    1  UNL1        0.0727
     22 C         139.1941  140.2505  169.3615 C.ar    1  UNL1        0.0109
     23 C         138.1774  139.7091  170.3222 C.ar    1  UNL1        0.0579
     24 C         137.1151  138.7671  169.8381 C.ar    1  UNL1        0.2251
     25 N         137.0696  138.3665  168.3934 N.ar    1  UNL1       -0.2100
     26 C         138.0864  138.9079  167.4326 C.ar    1  UNL1        0.1065
     27 O         136.0984  138.2256  170.7990 O.3     1  UNL1       -0.4509
     28 C         136.5446  137.5593  172.0666 C.3     1  UNL1        0.3095
     29 C         135.5286  136.9969  173.0160 C.3     1  UNL1        0.4381
     30 F         134.5125  136.4346  173.9655 F       1  UNL1       -0.1663
     31 F         134.8511  138.3335  173.0827 F       1  UNL1       -0.1663
     32 F         136.2060  135.6603  172.9492 F       1  UNL1       -0.1663
@<TRIPOS>BOND
     1     1     2    2
     2     2     3   am
     3     5     3    1
     4     5     6    1
     5     6     7    1
     6     7     8    1
     7     8     9   ar
     8     9    10   ar
     9    10    11   ar
    10    11    12   ar
    11    12    15    1
    12    15    16   ar
    13    16    17   ar
    14    17    18   ar
    15    18    19   ar
    16    19    20   ar
    17    12    13   ar
    18    13    14    1
    19     2    21    1
    20    21    22   ar
    21    22    23   ar
    22    23    24   ar
    23    24    27    1
    24    27    28    1
    25    28    29    1
    26    29    30    1
    27    29    31    1
    28    29    32    1
    29    24    25   ar
    30    25    26   ar
    31    14     5    1
    32    26    21   ar
    33    13     8   ar
    34    20    15   ar
    35     3     4    1
@<TRIPOS>MOLECULE
*****
 32 35 0 0 0
SMALL
GASTEIGER

@<TRIPOS>ATOM
      1 O         139.7185  138.7557  160.5967 O.2     1  UNL1       -0.2701
      2 C         140.4152  139.4455  159.4614 C.2     1  UNL1        0.2474
      3 N         140.4299  140.9437  159.3898 N.am    1  UNL1       -0.2986
      4 H         140.8872  141.3964  158.6447 H       1  UNL1        0.1498
      5 C         139.7479  141.7521  160.4535 C.3     1  UNL1        0.1200
      6 C         138.3238  142.1853  160.2688 C.3     1  UNL1        0.2250
      7 O         137.6419  142.9938  161.3324 O.3     1  UNL1       -0.4740
      8 C         138.3840  143.3690  162.5808 C.ar    1  UNL1        0.1346
      9 C         137.7020  144.1774  163.6444 C.ar    1  UNL1        0.0366
     10 C         138.4442  144.5526  164.8928 C.ar    1  UNL1        0.0031
     11 C         139.8684  144.1193  165.0775 C.ar    1  UNL1       -0.0001
     12 C         140.5503  143.3109  164.0139 C.ar    1  UNL1        0.0005
     13 C         139.8081  142.9357  162.7655 C.ar    1  UNL1        0.0136
     14 C         140.4901  142.1273  161.7019 C.3     1  UNL1        0.0528
     15 C         141.9744  142.8777  164.1986 C.ar    1  UNL1        0.0190
     16 C         143.0939  143.7696  163.7499 C.ar    1  UNL1        0.0031
     17 C         144.5181  143.3363  163.9347 C.ar    1  UNL1        0.0207
     18 C         144.8227  142.0112  164.5681 C.ar    1  UNL1        0.0989
     19 N         143.7032  141.1193  165.0167 N.ar    1  UNL1       -0.2423
     20 C         142.2791  141.5525  164.8320 C.ar    1  UNL1        0.0988
     21 C         141.0973  138.6370  158.3978 C.ar    1  UNL1        0.0727
     22 C         140.2819  137.8419  157.4216 C.ar    1  UNL1        0.0109
     23 C         140.9639  137.0335  156.3580 C.ar    1  UNL1        0.0579
     24 C         142.4613  137.0202  156.2706 C.ar    1  UNL1        0.2251
     25 N         143.2767  137.8153  157.2467 N.ar    1  UNL1       -0.2100
     26 C         142.5947  138.6237  158.3103 C.ar    1  UNL1        0.1065
     27 O         143.1433  136.2118  155.2069 O.3     1  UNL1       -0.4509
     28 C         143.4788  134.7717  155.4589 C.3     1  UNL1        0.3095
     29 C         142.3806  133.7611  155.6098 C.3     1  UNL1        0.4381
     30 F         141.2824  132.7505  155.7607 F       1  UNL1       -0.1663
     31 F         142.1072  133.8383  154.1370 F       1  UNL1       -0.1663
     32 F         142.6541  133.6839  157.0826 F       1  UNL1       -0.1663
@<TRIPOS>BOND
     1     1     2    2
     2     2     3   am
     3     5     3    1
     4     5     6    1
     5     6     7    1
     6     7     8    1
     7     8     9   ar
     8     9    10   ar
     9    10    11   ar
    10    11    12   ar
    11    12    15    1
    12    15    16   ar
    13    16    17   ar
    14    17    18   ar
    15    18    19   ar
    16    19    20   ar
    17    12    13   ar
    18    13    14    1
    19     2    21    1
    20    21    22   ar
    21    22    23   ar
    22    23    24   ar
    23    24    27    1
    24    27    28    1
    25    28    29    1
    26    29    30    1
    27    29    31    1
    28    29    32    1
    29    24    25   ar
    30    25    26   ar
    31    14     5    1
    32    26    21   ar
    33    13     8   ar
    34    20    15   ar
    35     3     4    1
@<TRIPOS>MOLECULE
*****
 32 35 0 0 0
SMALL
GASTEIGER

@<TRIPOS>ATOM
      1 O         142.4441  138.1909  162.3804 O.2     1  UNL1       -0.2701
      2 C         141.3257  138.5407  161.4439 C.2     1  UNL1        0.2474
      3 N         140.0438  139.1025  161.9834 N.am    1  UNL1       -0.2986
      4 H         139.3098  139.3321  161.3687 H       1  UNL1        0.1498
      5 C         139.8802  139.3146  163.4593 C.3     1  UNL1        0.1200
      6 C         139.1256  138.3127  164.2819 C.3     1  UNL1        0.2250
      7 O         138.9620  138.5248  165.7577 O.3     1  UNL1       -0.4740
      8 C         139.5531  139.7388  166.4110 C.ar    1  UNL1        0.1346
      9 C         139.3895  139.9508  167.8870 C.ar    1  UNL1        0.0366
     10 C         139.9806  141.1648  168.5403 C.ar    1  UNL1        0.0031
     11 C         140.7353  142.1668  167.7177 C.ar    1  UNL1       -0.0001
     12 C         140.8989  141.9547  166.2418 C.ar    1  UNL1        0.0005
     13 C         140.3078  140.7407  165.5885 C.ar    1  UNL1        0.0136
     14 C         140.4713  140.5286  164.1126 C.3     1  UNL1        0.0528
     15 C         141.6535  142.9566  165.4192 C.ar    1  UNL1        0.0190
     16 C         140.9117  144.0257  164.6732 C.ar    1  UNL1        0.0031
     17 C         141.6664  145.0276  163.8506 C.ar    1  UNL1        0.0207
     18 C         143.1629  144.9604  163.7741 C.ar    1  UNL1        0.0989
     19 N         143.9048  143.8913  164.5202 N.ar    1  UNL1       -0.2423
     20 C         143.1501  142.8894  165.3427 C.ar    1  UNL1        0.0988
     21 C         141.4893  138.3287  159.9680 C.ar    1  UNL1        0.0727
     22 C         140.2903  138.3662  159.0675 C.ar    1  UNL1        0.0109
     23 C         140.4539  138.1541  157.5916 C.ar    1  UNL1        0.0579
     24 C         141.8166  137.9045  157.0163 C.ar    1  UNL1        0.2251
     25 N         143.0155  137.8670  157.9168 N.ar    1  UNL1       -0.2100
     26 C         142.8519  138.0791  159.3926 C.ar    1  UNL1        0.1065
     27 O         141.9801  137.6925  155.5403 O.3     1  UNL1       -0.4509
     28 C         142.5910  136.4218  155.0283 C.3     1  UNL1        0.3095
     29 C         142.4081  135.1421  155.7890 C.3     1  UNL1        0.4381
     30 F         142.2251  133.8623  156.5498 F       1  UNL1       -0.1663
     31 F         143.8539  135.1720  156.1871 F       1  UNL1       -0.1663
     32 F         140.9622  135.1122  155.3909 F       1  UNL1       -0.1663
@<TRIPOS>BOND
     1     1     2    2
     2     2     3   am
     3     5     3    1
     4     5     6    1
     5     6     7    1
     6     7     8    1
     7     8     9   ar
     8     9    10   ar
     9    10    11   ar
    10    11    12   ar
    11    12    15    1
    12    15    16   ar
    13    16    17   ar
    14    17    18   ar
    15    18    19   ar
    16    19    20   ar
    17    12    13   ar
    18    13    14    1
    19     2    21    1
    20    21    22   ar
    21    22    23   ar
    22    23    24   ar
    23    24    27    1
    24    27    28    1
    25    28    29    1
    26    29    30    1
    27    29    31    1
    28    29    32    1
    29    24    25   ar
    30    25    26   ar
    31    14     5    1
    32    26    21   ar
    33    13     8   ar
    34    20    15   ar
    35     3     4    1
@<TRIPOS>MOLECULE
*****
 32 35 0 0 0
SMALL
GASTEIGER

@<TRIPOS>ATOM
      1 O         138.5923  143.3381  160.8663 O.2     1  UNL1       -0.2701
      2 C         139.2153  142.6065  159.7145 C.2     1  UNL1        0.2474
      3 N         140.6840  142.3018  159.7257 N.am    1  UNL1       -0.2986
      4 H         141.0929  141.8216  158.9698 H       1  UNL1        0.1498
      5 C         141.5297  142.7286  160.8888 C.3     1  UNL1        0.1200
      6 C         142.3229  143.9994  160.8129 C.3     1  UNL1        0.2250
      7 O         143.1686  144.4263  161.9759 O.3     1  UNL1       -0.4740
      8 C         143.2210  143.5823  163.2148 C.ar    1  UNL1        0.1346
      9 C         144.0668  144.0092  164.3778 C.ar    1  UNL1        0.0366
     10 C         144.1192  143.1652  165.6168 C.ar    1  UNL1        0.0031
     11 C         143.3260  141.8943  165.6926 C.ar    1  UNL1       -0.0001
     12 C         142.4803  141.4675  164.5296 C.ar    1  UNL1        0.0005
     13 C         142.4278  142.3115  163.2907 C.ar    1  UNL1        0.0136
     14 C         141.5822  141.8847  162.1277 C.3     1  UNL1        0.0528
     15 C         141.6871  140.1967  164.6056 C.ar    1  UNL1        0.0190
     16 C         142.3058  138.8995  164.1760 C.ar    1  UNL1        0.0031
     17 C         141.5125  137.6287  164.2519 C.ar    1  UNL1        0.0207
     18 C         140.1006  137.6550  164.7574 C.ar    1  UNL1        0.0989
     19 N         139.4818  138.9522  165.1870 N.ar    1  UNL1       -0.2423
     20 C         140.2750  140.2230  165.1111 C.ar    1  UNL1        0.0988
     21 C         138.3696  142.1796  158.5515 C.ar    1  UNL1        0.0727
     22 C         138.1331  143.1233  157.4098 C.ar    1  UNL1        0.0109
     23 C         137.2874  142.6964  156.2469 C.ar    1  UNL1        0.0579
     24 C         136.6782  141.3258  156.2256 C.ar    1  UNL1        0.2251
     25 N         136.9148  140.3821  157.3673 N.ar    1  UNL1       -0.2100
     26 C         137.7604  140.8090  158.5302 C.ar    1  UNL1        0.1065
     27 O         135.8325  140.8989  155.0625 O.3     1  UNL1       -0.4509
     28 C         134.3368  140.9256  155.1730 C.3     1  UNL1        0.3095
     29 C         133.6176  139.8183  155.8848 C.3     1  UNL1        0.4381
     30 F         132.8982  138.7110  156.5965 F       1  UNL1       -0.1663
     31 F         132.6463  140.8121  156.4494 F       1  UNL1       -0.1663
     32 F         134.5888  138.8244  155.3201 F       1  UNL1       -0.1663
@<TRIPOS>BOND
     1     1     2    2
     2     2     3   am
     3     5     3    1
     4     5     6    1
     5     6     7    1
     6     7     8    1
     7     8     9   ar
     8     9    10   ar
     9    10    11   ar
    10    11    12   ar
    11    12    15    1
    12    15    16   ar
    13    16    17   ar
    14    17    18   ar
    15    18    19   ar
    16    19    20   ar
    17    12    13   ar
    18    13    14    1
    19     2    21    1
    20    21    22   ar
    21    22    23   ar
    22    23    24   ar
    23    24    27    1
    24    27    28    1
    25    28    29    1
    26    29    30    1
    27    29    31    1
    28    29    32    1
    29    24    25   ar
    30    25    26   ar
    31    14     5    1
    32    26    21   ar
    33    13     8   ar
    34    20    15   ar
    35     3     4    1
@<TRIPOS>MOLECULE
*****
 32 35 0 0 0
SMALL
GASTEIGER

@<TRIPOS>ATOM
      1 O         138.0571  142.7855  159.4678 O.2     1  UNL1       -0.2701
      2 C         138.1163  141.3072  159.7152 C.2     1  UNL1        0.2474
      3 N         137.8990  140.3480  158.5827 N.am    1  UNL1       -0.2986
      4 H         137.9378  139.3778  158.7451 H       1  UNL1        0.1498
      5 C         137.6225  140.8670  157.2027 C.3     1  UNL1        0.1200
      6 C         138.7230  141.5026  156.4060 C.3     1  UNL1        0.2250
      7 O         138.4465  142.0216  155.0261 O.3     1  UNL1       -0.4740
      8 C         137.0694  141.9049  154.4429 C.ar    1  UNL1        0.1346
      9 C         136.7929  142.4239  153.0630 C.ar    1  UNL1        0.0366
     10 C         135.4159  142.3073  152.4798 C.ar    1  UNL1        0.0031
     11 C         134.3153  141.6716  153.2765 C.ar    1  UNL1       -0.0001
     12 C         134.5918  141.1527  154.6564 C.ar    1  UNL1        0.0005
     13 C         135.9689  141.2693  155.2396 C.ar    1  UNL1        0.0136
     14 C         136.2454  140.7504  156.6195 C.3     1  UNL1        0.0528
     15 C         133.4913  140.5171  155.4531 C.ar    1  UNL1        0.0190
     16 C         133.6846  139.1514  156.0427 C.ar    1  UNL1        0.0031
     17 C         132.5840  138.5158  156.8394 C.ar    1  UNL1        0.0207
     18 C         131.2902  139.2458  157.0466 C.ar    1  UNL1        0.0989
     19 N         131.0968  140.6115  156.4570 N.ar    1  UNL1       -0.2423
     20 C         132.1974  141.2471  155.6603 C.ar    1  UNL1        0.0988
     21 C         138.3928  140.7882  161.0952 C.ar    1  UNL1        0.0727
     22 C         138.3231  141.7147  162.2728 C.ar    1  UNL1        0.0109
     23 C         138.5996  141.1956  163.6527 C.ar    1  UNL1        0.0579
     24 C         138.9457  139.7502  163.8549 C.ar    1  UNL1        0.2251
     25 N         139.0153  138.8238  162.6773 N.ar    1  UNL1       -0.2100
     26 C         138.7389  139.3428  161.2974 C.ar    1  UNL1        0.1065
     27 O         139.2222  139.2312  165.2349 O.3     1  UNL1       -0.4509
     28 C         138.1005  139.0851  166.2200 C.3     1  UNL1        0.3095
     29 C         137.7247  137.7264  166.7324 C.3     1  UNL1        0.4381
     30 F         137.3488  136.3676  167.2450 F       1  UNL1       -0.1663
     31 F         136.9575  138.3616  167.8539 F       1  UNL1       -0.1663
     32 F         138.4918  137.0911  165.6109 F       1  UNL1       -0.1663
@<TRIPOS>BOND
     1     1     2    2
     2     2     3   am
     3     5     3    1
     4     5     6    1
     5     6     7    1
     6     7     8    1
     7     8     9   ar
     8     9    10   ar
     9    10    11   ar
    10    11    12   ar
    11    12    15    1
    12    15    16   ar
    13    16    17   ar
    14    17    18   ar
    15    18    19   ar
    16    19    20   ar
    17    12    13   ar
    18    13    14    1
    19     2    21    1
    20    21    22   ar
    21    22    23   ar
    22    23    24   ar
    23    24    27    1
    24    27    28    1
    25    28    29    1
    26    29    30    1
    27    29    31    1
    28    29    32    1
    29    24    25   ar
    30    25    26   ar
    31    14     5    1
    32    26    21   ar
    33    13     8   ar
    34    20    15   ar
    35     3     4    1
