@<TRIPOS>MOLECULE
*****
 28 32 0 0 0
SMALL
GASTEIGER

@<TRIPOS>ATOM
      1 C         145.3004  142.1976  162.3577 C.3     1  UNL1        0.0666
      2 S         144.4962  143.4584  162.2404 S.3     1  UNL1       -0.0756
      3 C         140.7464  142.8924  163.0672 C.ar    1  UNL1        0.2029
      4 N         141.0178  144.1670  163.8100 N.ar    1  UNL1       -0.1250
      5 N         142.4554  144.5342  163.5907 N.ar    1  UNL1       -0.1220
      6 C         143.0726  143.4865  162.7124 C.ar    1  UNL1        0.1933
      7 N         142.0163  142.4719  162.3889 N.ar    1  UNL1       -0.2860
      8 C         142.1981  141.2509  161.5366 C.3     1  UNL1        0.1341
      9 C         137.7880  144.2700  163.0843 C.3     1  UNL1        0.0556
     10 C         138.0754  142.7991  163.0203 C.ar    1  UNL1        0.1001
     11 N         137.0533  141.7033  162.9529 N.ar    1  UNL1       -0.2085
     12 C         137.7815  140.3928  162.9035 C.ar    1  UNL1        0.2849
     13 O         139.2534  140.6788  162.9403 O.2     1  UNL1       -0.4283
     14 C         139.4351  142.1660  163.0125 C.ar    1  UNL1        0.1964
     15 C         145.6989  141.6853  163.7101 C.3     1  UNL1        0.0294
     16 C         144.9119  140.5842  164.3567 C.3     1  UNL1        0.0730
     17 N         143.6791  140.9079  165.1475 N.3     1  UNL1       -0.2724
     18 C         143.4623  142.1377  165.9784 C.3     1  UNL1        0.0724
     19 C         142.0959  142.0486  166.5907 C.3     1  UNL1        0.0214
     20 C         140.7144  141.6865  167.0493 C.3     1  UNL1        0.0072
     21 C         141.4682  140.7636  166.1382 C.3     1  UNL1        0.0350
     22 C         142.4467  140.0587  165.2462 C.3     1  UNL1        0.0761
     23 C         140.3933  139.7214  166.0464 C.ar    1  UNL1       -0.0215
     24 C         139.1642  139.8346  166.8988 C.ar    1  UNL1       -0.0042
     25 C         138.0892  138.7924  166.8071 C.ar    1  UNL1       -0.0003
     26 C         138.2434  137.6370  165.8630 C.ar    1  UNL1       -0.0000
     27 C         139.4726  137.5239  165.0105 C.ar    1  UNL1       -0.0003
     28 C         140.5475  138.5661  165.1023 C.ar    1  UNL1       -0.0042
@<TRIPOS>BOND
     1     9    10    1
     2    10    11   ar
     3    11    12   ar
     4    12    13   ar
     5    13    14   ar
     6    14     3    1
     7     3     4   ar
     8     4     5   ar
     9     5     6   ar
    10     6     2    1
    11     2     1    1
    12     1    15    1
    13    15    16    1
    14    16    17    1
    15    17    18    1
    16    18    19    1
    17    19    20    1
    18    20    21    1
    19    21    23    1
    20    23    24   ar
    21    24    25   ar
    22    25    26   ar
    23    26    27   ar
    24    27    28   ar
    25    21    22    1
    26     6     7   ar
    27     7     8    1
    28    14    10   ar
    29     7     3   ar
    30    22    17    1
    31    21    19    1
    32    28    23   ar
@<TRIPOS>MOLECULE
*****
 28 32 0 0 0
SMALL
GASTEIGER

@<TRIPOS>ATOM
      1 C         145.1744  141.5265  162.0794 C.3     1  UNL1        0.0666
      2 S         144.6146  142.7435  161.4042 S.3     1  UNL1       -0.0756
      3 C         141.3238  144.1220  162.9322 C.ar    1  UNL1        0.2029
      4 N         142.2532  145.2782  163.1546 N.ar    1  UNL1       -0.1250
      5 N         143.5991  144.9025  162.6093 N.ar    1  UNL1       -0.1220
      6 C         143.5015  143.5142  162.0499 C.ar    1  UNL1        0.1933
      7 N         142.0952  143.0319  162.2495 N.ar    1  UNL1       -0.2860
      8 C         141.5553  141.6941  161.8384 C.3     1  UNL1        0.1341
      9 C         140.1617  143.2970  165.8680 C.3     1  UNL1        0.0556
     10 C         139.3428  143.6868  164.6732 C.ar    1  UNL1        0.1001
     11 N         137.8459  143.7657  164.6182 N.ar    1  UNL1       -0.2085
     12 C         137.4549  144.1938  163.2348 C.ar    1  UNL1        0.2849
     13 O         138.7100  144.3793  162.4349 O.2     1  UNL1       -0.4283
     14 C         139.8768  144.0660  163.3239 C.ar    1  UNL1        0.1964
     15 C         145.2008  141.4451  163.5770 C.3     1  UNL1        0.0294
     16 C         144.9564  140.1329  164.2612 C.3     1  UNL1        0.0730
     17 N         143.6947  139.3687  163.9890 N.3     1  UNL1       -0.2724
     18 C         143.4451  138.4680  162.8158 C.3     1  UNL1        0.0724
     19 C         142.0572  137.9136  162.9439 C.3     1  UNL1        0.0214
     20 C         140.6604  137.5309  163.3344 C.3     1  UNL1        0.0072
     21 C         141.4490  138.4717  164.1964 C.3     1  UNL1        0.0350
     22 C         142.4610  139.3709  164.8423 C.3     1  UNL1        0.0761
     23 C         140.3802  138.6706  165.2299 C.ar    1  UNL1       -0.0215
     24 C         139.1005  137.8928  165.1447 C.ar    1  UNL1       -0.0042
     25 C         138.0316  138.0917  166.1782 C.ar    1  UNL1       -0.0003
     26 C         138.2425  139.0685  167.2969 C.ar    1  UNL1       -0.0000
     27 C         139.5223  139.8464  167.3820 C.ar    1  UNL1       -0.0003
     28 C         140.5911  139.6474  166.3485 C.ar    1  UNL1       -0.0042
@<TRIPOS>BOND
     1     9    10    1
     2    10    11   ar
     3    11    12   ar
     4    12    13   ar
     5    13    14   ar
     6    14     3    1
     7     3     4   ar
     8     4     5   ar
     9     5     6   ar
    10     6     2    1
    11     2     1    1
    12     1    15    1
    13    15    16    1
    14    16    17    1
    15    17    18    1
    16    18    19    1
    17    19    20    1
    18    20    21    1
    19    21    23    1
    20    23    24   ar
    21    24    25   ar
    22    25    26   ar
    23    26    27   ar
    24    27    28   ar
    25    21    22    1
    26     6     7   ar
    27     7     8    1
    28    14    10   ar
    29     7     3   ar
    30    22    17    1
    31    21    19    1
    32    28    23   ar
@<TRIPOS>MOLECULE
*****
 28 32 0 0 0
SMALL
GASTEIGER

@<TRIPOS>ATOM
      1 C         145.3317  140.7230  164.1515 C.3     1  UNL1        0.0666
      2 S         145.0620  141.8853  163.2423 S.3     1  UNL1       -0.0756
      3 C         141.3916  142.5675  162.1802 C.ar    1  UNL1        0.2029
      4 N         141.9339  141.9121  160.9447 N.ar    1  UNL1       -0.1250
      5 N         143.3747  141.5768  161.1922 N.ar    1  UNL1       -0.1220
      6 C         143.7231  142.0249  162.5806 C.ar    1  UNL1        0.1933
      7 N         142.4974  142.6372  163.1912 N.ar    1  UNL1       -0.2860
      8 C         142.3955  143.2174  164.5708 C.3     1  UNL1        0.1341
      9 C         140.4607  145.6944  162.2561 C.3     1  UNL1        0.0556
     10 C         139.5618  144.5029  162.4060 C.ar    1  UNL1        0.1001
     11 N         138.0772  144.5396  162.6171 N.ar    1  UNL1       -0.2085
     12 C         137.5876  143.1250  162.7126 C.ar    1  UNL1        0.2849
     13 O         138.7695  142.2141  162.5606 O.2     1  UNL1       -0.4283
     14 C         139.9897  143.0657  162.3711 C.ar    1  UNL1        0.1964
     15 C         144.5853  139.4354  163.9643 C.3     1  UNL1        0.0294
     16 C         143.7222  138.9014  165.0687 C.3     1  UNL1        0.0730
     17 N         142.3420  139.4516  165.2746 N.3     1  UNL1       -0.2724
     18 C         141.2222  139.4196  164.2772 C.3     1  UNL1        0.0724
     19 C         140.0274  140.0785  164.9003 C.3     1  UNL1        0.0214
     20 C         139.0228  140.7745  165.7699 C.3     1  UNL1        0.0072
     21 C         140.4087  140.5177  166.2829 C.3     1  UNL1        0.0350
     22 C         141.8393  140.1302  166.5143 C.3     1  UNL1        0.0761
     23 C         140.1958  141.1427  167.6297 C.ar    1  UNL1       -0.0215
     24 C         139.5472  140.3539  168.7284 C.ar    1  UNL1       -0.0042
     25 C         139.3342  140.9788  170.0754 C.ar    1  UNL1       -0.0003
     26 C         139.7698  142.3926  170.3235 C.ar    1  UNL1       -0.0000
     27 C         140.4184  143.1814  169.2247 C.ar    1  UNL1       -0.0003
     28 C         140.6314  142.5564  167.8779 C.ar    1  UNL1       -0.0042
@<TRIPOS>BOND
     1     9    10    1
     2    10    11   ar
     3    11    12   ar
     4    12    13   ar
     5    13    14   ar
     6    14     3    1
     7     3     4   ar
     8     4     5   ar
     9     5     6   ar
    10     6     2    1
    11     2     1    1
    12     1    15    1
    13    15    16    1
    14    16    17    1
    15    17    18    1
    16    18    19    1
    17    19    20    1
    18    20    21    1
    19    21    23    1
    20    23    24   ar
    21    24    25   ar
    22    25    26   ar
    23    26    27   ar
    24    27    28   ar
    25    21    22    1
    26     6     7   ar
    27     7     8    1
    28    14    10   ar
    29     7     3   ar
    30    22    17    1
    31    21    19    1
    32    28    23   ar
@<TRIPOS>MOLECULE
*****
 28 32 0 0 0
SMALL
GASTEIGER

@<TRIPOS>ATOM
      1 C         142.4719  138.5097  162.3752 C.3     1  UNL1        0.0666
      2 S         141.6350  137.6796  163.3029 S.3     1  UNL1       -0.0756
      3 C         139.7861  139.4604  166.2141 C.ar    1  UNL1        0.2029
      4 N         138.6690  139.2782  165.2297 N.ar    1  UNL1       -0.1250
      5 N         139.2256  138.5890  164.0194 N.ar    1  UNL1       -0.1220
      6 C         140.6867  138.3452  164.2557 C.ar    1  UNL1        0.1933
      7 N         141.0330  138.8838  165.6121 N.ar    1  UNL1       -0.2860
      8 C         142.3885  138.8514  166.2539 C.3     1  UNL1        0.1341
      9 C         141.1487  142.2887  167.1050 C.3     1  UNL1        0.0556
     10 C         140.3018  141.4059  167.9731 C.ar    1  UNL1        0.1001
     11 N         139.9325  141.6683  169.4030 N.ar    1  UNL1       -0.2085
     12 C         139.0780  140.5304  169.8773 C.ar    1  UNL1        0.2849
     13 O         138.9191  139.5649  168.7405 O.2     1  UNL1       -0.4283
     14 C         139.6755  140.1060  167.5636 C.ar    1  UNL1        0.1964
     15 C         143.6744  139.2376  162.8988 C.3     1  UNL1        0.0294
     16 C         144.1784  140.4601  162.1906 C.3     1  UNL1        0.0730
     17 N         143.6687  141.8160  162.5800 N.3     1  UNL1       -0.2724
     18 C         144.4619  143.0891  162.5813 C.3     1  UNL1        0.0724
     19 C         143.5598  144.1969  163.0386 C.3     1  UNL1        0.0214
     20 C         142.4431  145.0769  163.5166 C.3     1  UNL1        0.0072
     21 C         142.2091  143.6084  163.3200 C.3     1  UNL1        0.0350
     22 C         142.2764  142.1369  163.0366 C.3     1  UNL1        0.0761
     23 C         140.7679  143.6223  163.7355 C.ar    1  UNL1       -0.0215
     24 C         140.2051  144.8145  164.4510 C.ar    1  UNL1       -0.0042
     25 C         138.7638  144.8284  164.8666 C.ar    1  UNL1       -0.0003
     26 C         137.8853  143.6501  164.5666 C.ar    1  UNL1       -0.0000
     27 C         138.4482  142.4578  163.8511 C.ar    1  UNL1       -0.0003
     28 C         139.8894  142.4439  163.4356 C.ar    1  UNL1       -0.0042
@<TRIPOS>BOND
     1     9    10    1
     2    10    11   ar
     3    11    12   ar
     4    12    13   ar
     5    13    14   ar
     6    14     3    1
     7     3     4   ar
     8     4     5   ar
     9     5     6   ar
    10     6     2    1
    11     2     1    1
    12     1    15    1
    13    15    16    1
    14    16    17    1
    15    17    18    1
    16    18    19    1
    17    19    20    1
    18    20    21    1
    19    21    23    1
    20    23    24   ar
    21    24    25   ar
    22    25    26   ar
    23    26    27   ar
    24    27    28   ar
    25    21    22    1
    26     6     7   ar
    27     7     8    1
    28    14    10   ar
    29     7     3   ar
    30    22    17    1
    31    21    19    1
    32    28    23   ar
@<TRIPOS>MOLECULE
*****
 28 32 0 0 0
SMALL
GASTEIGER

@<TRIPOS>ATOM
      1 C         144.8610  139.6414  164.0246 C.3     1  UNL1        0.0666
      2 S         143.4959  139.3468  164.5721 S.3     1  UNL1       -0.0756
      3 C         142.6439  139.7969  168.3319 C.ar    1  UNL1        0.2029
      4 N         143.2809  138.4389  168.3396 N.ar    1  UNL1       -0.1250
      5 N         143.6776  138.1051  166.9321 N.ar    1  UNL1       -0.1220
      6 C         143.2858  139.2567  166.0545 C.ar    1  UNL1        0.1933
      7 N         142.6469  140.3023  166.9197 N.ar    1  UNL1       -0.2860
      8 C         142.1061  141.6217  166.4542 C.3     1  UNL1        0.1341
      9 C         143.9670  142.4217  169.7497 C.3     1  UNL1        0.0556
     10 C         142.7077  141.7286  170.1784 C.ar    1  UNL1        0.1001
     11 N         141.8354  142.1204  171.3342 N.ar    1  UNL1       -0.2085
     12 C         140.6882  141.1561  171.3967 C.ar    1  UNL1        0.2849
     13 O         140.8514  140.1684  170.2798 O.2     1  UNL1       -0.4283
     14 C         142.0995  140.5222  169.5268 C.ar    1  UNL1        0.1964
     15 C         145.3418  141.0592  163.9313 C.3     1  UNL1        0.0294
     16 C         144.9057  141.9253  162.7869 C.3     1  UNL1        0.0730
     17 N         143.8416  142.9621  162.9940 N.3     1  UNL1       -0.2724
     18 C         144.0699  144.4286  163.2109 C.3     1  UNL1        0.0724
     19 C         142.7318  145.0873  163.3715 C.3     1  UNL1        0.0214
     20 C         141.2827  145.4554  163.4919 C.3     1  UNL1        0.0072
     21 C         141.6765  144.0278  163.2538 C.3     1  UNL1        0.0350
     22 C         142.3625  142.7143  163.0205 C.3     1  UNL1        0.0761
     23 C         140.2797  143.4816  163.2305 C.ar    1  UNL1       -0.0215
     24 C         139.5154  143.3222  164.5112 C.ar    1  UNL1       -0.0042
     25 C         138.1185  142.7759  164.4880 C.ar    1  UNL1       -0.0003
     26 C         137.4860  142.3891  163.1839 C.ar    1  UNL1       -0.0000
     27 C         138.2505  142.5486  161.9032 C.ar    1  UNL1       -0.0003
     28 C         139.6473  143.0948  161.9265 C.ar    1  UNL1       -0.0042
@<TRIPOS>BOND
     1     9    10    1
     2    10    11   ar
     3    11    12   ar
     4    12    13   ar
     5    13    14   ar
     6    14     3    1
     7     3     4   ar
     8     4     5   ar
     9     5     6   ar
    10     6     2    1
    11     2     1    1
    12     1    15    1
    13    15    16    1
    14    16    17    1
    15    17    18    1
    16    18    19    1
    17    19    20    1
    18    20    21    1
    19    21    23    1
    20    23    24   ar
    21    24    25   ar
    22    25    26   ar
    23    26    27   ar
    24    27    28   ar
    25    21    22    1
    26     6     7   ar
    27     7     8    1
    28    14    10   ar
    29     7     3   ar
    30    22    17    1
    31    21    19    1
    32    28    23   ar
@<TRIPOS>MOLECULE
*****
 28 32 0 0 0
SMALL
GASTEIGER

@<TRIPOS>ATOM
      1 C         139.1461  145.1736  162.6668 C.3     1  UNL1        0.0666
      2 S         138.2626  144.1316  163.2862 S.3     1  UNL1       -0.0756
      3 C         139.8577  140.6295  163.7924 C.ar    1  UNL1        0.2029
      4 N         139.6560  141.0643  165.2137 N.ar    1  UNL1       -0.1250
      5 N         139.0339  142.4290  165.1971 N.ar    1  UNL1       -0.1220
      6 C         138.8511  142.8378  163.7655 C.ar    1  UNL1        0.1933
      7 N         139.3603  141.7256  162.8974 N.ar    1  UNL1       -0.2860
      8 C         139.3702  141.7119  161.3974 C.3     1  UNL1        0.1341
      9 C         139.0718  137.6716  164.9251 C.3     1  UNL1        0.0556
     10 C         140.0913  137.9677  163.8653 C.ar    1  UNL1        0.1001
     11 N         140.9284  136.9562  163.1401 N.ar    1  UNL1       -0.2085
     12 C         141.8070  137.6906  162.1713 C.ar    1  UNL1        0.2849
     13 O         141.5129  139.1559  162.2977 O.2     1  UNL1       -0.4283
     14 C         140.4525  139.3272  163.3447 C.ar    1  UNL1        0.1964
     15 C         140.5921  145.2587  163.0564 C.3     1  UNL1        0.0294
     16 C         141.6483  144.7092  162.1440 C.3     1  UNL1        0.0730
     17 N         142.7337  143.8329  162.6952 N.3     1  UNL1       -0.2724
     18 C         144.1482  143.7647  162.2008 C.3     1  UNL1        0.0724
     19 C         144.8840  142.7605  163.0376 C.3     1  UNL1        0.0214
     20 C         145.3440  141.7253  164.0208 C.3     1  UNL1        0.0072
     21 C         143.9241  142.2080  164.0493 C.3     1  UNL1        0.0350
     22 C         142.5952  142.8707  163.8377 C.3     1  UNL1        0.0761
     23 C         143.4887  141.3468  165.1977 C.ar    1  UNL1       -0.0215
     24 C         143.5766  139.8532  165.0905 C.ar    1  UNL1       -0.0042
     25 C         143.1412  138.9920  166.2389 C.ar    1  UNL1       -0.0003
     26 C         142.6180  139.6244  167.4945 C.ar    1  UNL1       -0.0000
     27 C         142.5302  141.1180  167.6016 C.ar    1  UNL1       -0.0003
     28 C         142.9656  141.9792  166.4532 C.ar    1  UNL1       -0.0042
@<TRIPOS>BOND
     1     9    10    1
     2    10    11   ar
     3    11    12   ar
     4    12    13   ar
     5    13    14   ar
     6    14     3    1
     7     3     4   ar
     8     4     5   ar
     9     5     6   ar
    10     6     2    1
    11     2     1    1
    12     1    15    1
    13    15    16    1
    14    16    17    1
    15    17    18    1
    16    18    19    1
    17    19    20    1
    18    20    21    1
    19    21    23    1
    20    23    24   ar
    21    24    25   ar
    22    25    26   ar
    23    26    27   ar
    24    27    28   ar
    25    21    22    1
    26     6     7   ar
    27     7     8    1
    28    14    10   ar
    29     7     3   ar
    30    22    17    1
    31    21    19    1
    32    28    23   ar
@<TRIPOS>MOLECULE
*****
 28 32 0 0 0
SMALL
GASTEIGER

@<TRIPOS>ATOM
      1 C         139.2967  138.3043  164.6654 C.3     1  UNL1        0.0666
      2 S         138.4858  139.1490  165.6031 S.3     1  UNL1       -0.0756
      3 C         140.5421  140.6986  168.5074 C.ar    1  UNL1        0.2029
      4 N         139.4628  139.9841  169.2655 N.ar    1  UNL1       -0.1250
      5 N         138.5612  139.3167  168.2698 N.ar    1  UNL1       -0.1220
      6 C         139.0832  139.6187  166.8964 C.ar    1  UNL1        0.1933
      7 N         140.3075  140.4727  167.0433 N.ar    1  UNL1       -0.2860
      8 C         141.1494  141.0071  165.9227 C.3     1  UNL1        0.1341
      9 C         140.2631  143.6319  169.9103 C.3     1  UNL1        0.0556
     10 C         141.5316  142.8468  169.7530 C.ar    1  UNL1        0.1001
     11 N         142.8945  143.2722  170.2129 N.ar    1  UNL1       -0.2085
     12 C         143.8650  142.1868  169.8524 C.ar    1  UNL1        0.2849
     13 O         143.1020  141.0907  169.1696 O.2     1  UNL1       -0.4283
     14 C         141.6598  141.4986  169.1082 C.ar    1  UNL1        0.1964
     15 C         138.7345  137.9147  163.3304 C.3     1  UNL1        0.0294
     16 C         138.9053  138.8247  162.1503 C.3     1  UNL1        0.0730
     17 N         138.7740  140.3090  162.3225 N.3     1  UNL1       -0.2724
     18 C         137.4946  141.0911  162.2857 C.3     1  UNL1        0.0724
     19 C         137.8289  142.5372  162.5022 C.3     1  UNL1        0.0214
     20 C         138.4582  143.8785  162.7366 C.3     1  UNL1        0.0072
     21 C         139.3150  142.6489  162.6728 C.3     1  UNL1        0.0350
     22 C         139.8991  141.2718  162.5617 C.3     1  UNL1        0.0761
     23 C         140.6191  143.3547  162.8987 C.ar    1  UNL1       -0.0215
     24 C         140.6351  144.7213  163.5168 C.ar    1  UNL1       -0.0042
     25 C         141.9393  145.4271  163.7428 C.ar    1  UNL1       -0.0003
     26 C         143.2275  144.7662  163.3505 C.ar    1  UNL1       -0.0000
     27 C         143.2115  143.3995  162.7323 C.ar    1  UNL1       -0.0003
     28 C         141.9073  142.6938  162.5064 C.ar    1  UNL1       -0.0042
@<TRIPOS>BOND
     1     9    10    1
     2    10    11   ar
     3    11    12   ar
     4    12    13   ar
     5    13    14   ar
     6    14     3    1
     7     3     4   ar
     8     4     5   ar
     9     5     6   ar
    10     6     2    1
    11     2     1    1
    12     1    15    1
    13    15    16    1
    14    16    17    1
    15    17    18    1
    16    18    19    1
    17    19    20    1
    18    20    21    1
    19    21    23    1
    20    23    24   ar
    21    24    25   ar
    22    25    26   ar
    23    26    27   ar
    24    27    28   ar
    25    21    22    1
    26     6     7   ar
    27     7     8    1
    28    14    10   ar
    29     7     3   ar
    30    22    17    1
    31    21    19    1
    32    28    23   ar
@<TRIPOS>MOLECULE
*****
 28 32 0 0 0
SMALL
GASTEIGER

@<TRIPOS>ATOM
      1 C         139.7834  139.1047  162.3984 C.3     1  UNL1        0.0666
      2 S         140.2739  138.2139  163.5011 S.3     1  UNL1       -0.0756
      3 C         140.4206  139.7391  167.0672 C.ar    1  UNL1        0.2029
      4 N         141.8794  139.6516  166.7292 N.ar    1  UNL1       -0.1250
      5 N         142.0020  139.0696  165.3523 N.ar    1  UNL1       -0.1220
      6 C         140.6190  138.7974  164.8392 C.ar    1  UNL1        0.1933
      7 N         139.6416  139.2112  165.8992 N.ar    1  UNL1       -0.2860
      8 C         138.1476  139.1141  165.8071 C.3     1  UNL1        0.1341
      9 C         141.0917  142.6240  168.4371 C.3     1  UNL1        0.0556
     10 C         140.1507  141.5886  168.9781 C.ar    1  UNL1        0.1001
     11 N         139.3531  141.6976  170.2438 N.ar    1  UNL1       -0.2085
     12 C         138.5517  140.4388  170.3963 C.ar    1  UNL1        0.2849
     13 O         138.8540  139.5520  169.2250 O.2     1  UNL1       -0.4283
     14 C         139.8423  140.2627  168.3485 C.ar    1  UNL1        0.1964
     15 C         138.3320  139.4760  162.3238 C.3     1  UNL1        0.0294
     16 C         137.9341  140.8859  162.0017 C.3     1  UNL1        0.0730
     17 N         138.3270  142.0046  162.9205 N.3     1  UNL1       -0.2724
     18 C         137.3872  142.8903  163.6835 C.3     1  UNL1        0.0724
     19 C         138.2082  143.8671  164.4722 C.3     1  UNL1        0.0214
     20 C         139.2721  144.6949  165.1300 C.3     1  UNL1        0.0072
     21 C         139.6554  143.5851  164.1965 C.3     1  UNL1        0.0350
     22 C         139.7288  142.4340  163.2375 C.3     1  UNL1        0.0761
     23 C         141.1373  143.7825  164.3184 C.ar    1  UNL1       -0.0215
     24 C         141.9866  142.7176  164.9465 C.ar    1  UNL1       -0.0042
     25 C         143.4687  142.9149  165.0683 C.ar    1  UNL1       -0.0003
     26 C         144.1013  144.1773  164.5621 C.ar    1  UNL1       -0.0000
     27 C         143.2519  145.2423  163.9340 C.ar    1  UNL1       -0.0003
     28 C         141.7700  145.0449  163.8121 C.ar    1  UNL1       -0.0042
@<TRIPOS>BOND
     1     9    10    1
     2    10    11   ar
     3    11    12   ar
     4    12    13   ar
     5    13    14   ar
     6    14     3    1
     7     3     4   ar
     8     4     5   ar
     9     5     6   ar
    10     6     2    1
    11     2     1    1
    12     1    15    1
    13    15    16    1
    14    16    17    1
    15    17    18    1
    16    18    19    1
    17    19    20    1
    18    20    21    1
    19    21    23    1
    20    23    24   ar
    21    24    25   ar
    22    25    26   ar
    23    26    27   ar
    24    27    28   ar
    25    21    22    1
    26     6     7   ar
    27     7     8    1
    28    14    10   ar
    29     7     3   ar
    30    22    17    1
    31    21    19    1
    32    28    23   ar
@<TRIPOS>MOLECULE
*****
 28 32 0 0 0
SMALL
GASTEIGER

@<TRIPOS>ATOM
      1 C         138.3765  139.1107  163.1070 C.3     1  UNL1        0.0666
      2 S         138.2763  140.2084  164.1244 S.3     1  UNL1       -0.0756
      3 C         139.3284  139.9440  167.8511 C.ar    1  UNL1        0.2029
      4 N         138.2331  138.9212  167.7859 N.ar    1  UNL1       -0.1250
      5 N         137.7057  138.8958  166.3820 N.ar    1  UNL1       -0.1220
      6 C         138.4750  139.9028  165.5795 C.ar    1  UNL1        0.1933
      7 N         139.4778  140.5506  166.4875 N.ar    1  UNL1       -0.2860
      8 C         140.4581  141.6178  166.0999 C.3     1  UNL1        0.1341
      9 C         142.5145  139.3789  168.2740 C.3     1  UNL1        0.0556
     10 C         141.5974  140.0382  169.2610 C.ar    1  UNL1        0.1001
     11 N         141.9837  140.5535  170.6157 N.ar    1  UNL1       -0.2085
     12 C         140.7580  141.1317  171.2586 C.ar    1  UNL1        0.2849
     13 O         139.6142  140.9738  170.3013 O.2     1  UNL1       -0.4283
     14 C         140.1329  140.2979  169.0667 C.ar    1  UNL1        0.1964
     15 C         139.4923  138.1117  163.1891 C.3     1  UNL1        0.0294
     16 C         140.6285  138.1744  162.2118 C.3     1  UNL1        0.0730
     17 N         141.8764  138.9305  162.5600 N.3     1  UNL1       -0.2724
     18 C         143.2515  138.3472  162.6967 C.3     1  UNL1        0.0724
     19 C         144.1932  139.4589  163.0538 C.3     1  UNL1        0.0214
     20 C         144.8773  140.7488  163.3972 C.3     1  UNL1        0.0072
     21 C         143.4001  140.7292  163.1377 C.3     1  UNL1        0.0350
     22 C         141.9682  140.4027  162.8325 C.3     1  UNL1        0.0761
     23 C         143.1830  142.1973  163.3559 C.ar    1  UNL1       -0.0215
     24 C         144.1557  142.9844  164.1832 C.ar    1  UNL1       -0.0042
     25 C         143.9387  144.4525  164.4015 C.ar    1  UNL1       -0.0003
     26 C         142.7490  145.1335  163.7925 C.ar    1  UNL1       -0.0000
     27 C         141.7763  144.3463  162.9652 C.ar    1  UNL1       -0.0003
     28 C         141.9933  142.8783  162.7470 C.ar    1  UNL1       -0.0042
@<TRIPOS>BOND
     1     9    10    1
     2    10    11   ar
     3    11    12   ar
     4    12    13   ar
     5    13    14   ar
     6    14     3    1
     7     3     4   ar
     8     4     5   ar
     9     5     6   ar
    10     6     2    1
    11     2     1    1
    12     1    15    1
    13    15    16    1
    14    16    17    1
    15    17    18    1
    16    18    19    1
    17    19    20    1
    18    20    21    1
    19    21    23    1
    20    23    24   ar
    21    24    25   ar
    22    25    26   ar
    23    26    27   ar
    24    27    28   ar
    25    21    22    1
    26     6     7   ar
    27     7     8    1
    28    14    10   ar
    29     7     3   ar
    30    22    17    1
    31    21    19    1
    32    28    23   ar
