@<TRIPOS>MOLECULE
*****
 32 36 0 0 0
SMALL
GASTEIGER

@<TRIPOS>ATOM
      1 N         140.6592  140.3569  160.0269 N.pl3   1  UNL1       -0.2464
      2 C         140.9841  140.1195  161.4720 C.2     1  UNL1        0.3157
      3 N         142.0924  140.7707  162.2450 N.2     1  UNL1       -0.0614
      4 C         142.0509  140.2429  163.6484 C.3     1  UNL1        0.2309
      5 C         140.9170  139.2655  163.7428 C.ar    1  UNL1        0.0390
      6 C         140.3997  138.4351  164.8798 C.ar    1  UNL1        0.0008
      7 C         139.2230  137.5285  164.6716 C.ar    1  UNL1        0.0021
      8 C         138.5636  137.4522  163.3265 C.ar    1  UNL1        0.0299
      9 C         139.0810  138.2826  162.1895 C.ar    1  UNL1        0.1470
     10 F         138.4216  138.2064  160.8443 F       1  UNL1       -0.2039
     11 C         140.2576  139.1893  162.3976 C.ar    1  UNL1        0.1094
     12 H         141.1972  140.9904  159.4991 H       1  UNL1        0.2884
     13 H         139.9081  139.8793  159.6064 H       1  UNL1        0.2884
     14 C         143.2277  141.1496  163.8566 C.ar    1  UNL1        0.0328
     15 C         143.0432  142.4738  164.5365 C.ar    1  UNL1        0.0211
     16 C         144.2199  143.3804  164.7446 C.ar    1  UNL1        0.0987
     17 N         145.5811  142.9628  164.2728 N.ar    1  UNL1       -0.2423
     18 C         145.7657  141.6386  163.5928 C.ar    1  UNL1        0.0987
     19 C         144.5889  140.7320  163.3847 C.ar    1  UNL1        0.0211
     20 C         142.2555  139.9046  165.0954 C.ar    1  UNL1        0.0297
     21 C         143.1971  138.8028  165.4823 C.ar    1  UNL1        0.0004
     22 C         143.4016  138.4645  166.9292 C.ar    1  UNL1       -0.0002
     23 C         142.6646  139.2280  167.9894 C.ar    1  UNL1        0.0000
     24 C         141.7230  140.3297  167.6026 C.ar    1  UNL1        0.0014
     25 C         141.5185  140.6681  166.1556 C.ar    1  UNL1        0.0004
     26 C         140.9860  141.0933  168.6627 C.ar    1  UNL1        0.0214
     27 C         140.0827  140.3696  169.6170 C.ar    1  UNL1        0.0990
     28 N         139.3456  141.1330  170.6771 N.ar    1  UNL1       -0.2400
     29 C         139.5118  142.6201  170.7829 C.ar    1  UNL1        0.1284
     30 C         140.4149  143.3436  169.8286 C.ar    1  UNL1        0.1592
     31 F         140.5810  144.8306  169.9345 F       1  UNL1       -0.2025
     32 C         141.1521  142.5802  168.7685 C.ar    1  UNL1        0.0328
@<TRIPOS>BOND
     1     1     2    1
     2     2     3    2
     3     3     4    1
     4     4    14    1
     5    14    15   ar
     6    15    16   ar
     7    16    17   ar
     8    17    18   ar
     9    18    19   ar
    10     4    20    1
    11    20    21   ar
    12    21    22   ar
    13    22    23   ar
    14    23    24   ar
    15    24    26    1
    16    26    27   ar
    17    27    28   ar
    18    28    29   ar
    19    29    30   ar
    20    30    31    1
    21    30    32   ar
    22    24    25   ar
    23     4     5    1
    24     5     6   ar
    25     6     7   ar
    26     7     8   ar
    27     8     9   ar
    28     9    10    1
    29     9    11   ar
    30    11     2    1
    31    19    14   ar
    32    25    20   ar
    33    11     5   ar
    34    32    26   ar
    35     1    12    1
    36     1    13    1
@<TRIPOS>MOLECULE
*****
 32 36 0 0 0
SMALL
GASTEIGER

@<TRIPOS>ATOM
      1 N         144.4392  144.0694  162.0674 N.pl3   1  UNL1       -0.2464
      2 C         143.5068  143.1413  162.7880 C.2     1  UNL1        0.3157
      3 N         142.0285  143.3322  162.9563 N.2     1  UNL1       -0.0614
      4 C         141.4971  142.1682  163.7391 C.3     1  UNL1        0.2309
      5 C         142.6469  141.2580  164.0546 C.ar    1  UNL1        0.0390
      6 C         142.7234  139.9593  164.8012 C.ar    1  UNL1        0.0008
      7 C         144.0419  139.2620  164.9600 C.ar    1  UNL1        0.0021
      8 C         145.2839  139.8635  164.3722 C.ar    1  UNL1        0.0299
      9 C         145.2075  141.1622  163.6256 C.ar    1  UNL1        0.1470
     10 F         146.4496  141.7636  163.0377 F       1  UNL1       -0.2039
     11 C         143.8890  141.8595  163.4668 C.ar    1  UNL1        0.1094
     12 H         144.0917  144.8913  161.6516 H       1  UNL1        0.2884
     13 H         145.3988  143.8566  162.0103 H       1  UNL1        0.2884
     14 C         140.1786  142.8656  163.5803 C.ar    1  UNL1        0.0328
     15 C         139.5991  143.6437  164.7243 C.ar    1  UNL1        0.0211
     16 C         138.2806  144.3410  164.5655 C.ar    1  UNL1        0.0987
     17 N         137.5416  144.2602  163.2627 N.ar    1  UNL1       -0.2423
     18 C         138.1210  143.4821  162.1187 C.ar    1  UNL1        0.0987
     19 C         139.4395  142.7848  162.2775 C.ar    1  UNL1        0.0211
     20 C         140.6900  141.1501  164.4888 C.ar    1  UNL1        0.0297
     21 C         139.8268  140.1781  163.7401 C.ar    1  UNL1        0.0004
     22 C         139.0198  139.1600  164.4898 C.ar    1  UNL1       -0.0002
     23 C         139.0758  139.1137  165.9880 C.ar    1  UNL1        0.0000
     24 C         139.9389  140.0856  166.7367 C.ar    1  UNL1        0.0014
     25 C         140.7461  141.1038  165.9870 C.ar    1  UNL1        0.0004
     26 C         139.9950  140.0394  168.2349 C.ar    1  UNL1        0.0214
     27 C         138.7264  139.9499  169.0304 C.ar    1  UNL1        0.0990
     28 N         138.7824  139.9037  170.5286 N.ar    1  UNL1       -0.2400
     29 C         140.1070  139.9470  171.2313 C.ar    1  UNL1        0.1284
     30 C         141.3755  140.0366  170.4358 C.ar    1  UNL1        0.1592
     31 F         142.7000  140.0799  171.1385 F       1  UNL1       -0.2025
     32 C         141.3195  140.0828  168.9375 C.ar    1  UNL1        0.0328
@<TRIPOS>BOND
     1     1     2    1
     2     2     3    2
     3     3     4    1
     4     4    14    1
     5    14    15   ar
     6    15    16   ar
     7    16    17   ar
     8    17    18   ar
     9    18    19   ar
    10     4    20    1
    11    20    21   ar
    12    21    22   ar
    13    22    23   ar
    14    23    24   ar
    15    24    26    1
    16    26    27   ar
    17    27    28   ar
    18    28    29   ar
    19    29    30   ar
    20    30    31    1
    21    30    32   ar
    22    24    25   ar
    23     4     5    1
    24     5     6   ar
    25     6     7   ar
    26     7     8   ar
    27     8     9   ar
    28     9    10    1
    29     9    11   ar
    30    11     2    1
    31    19    14   ar
    32    25    20   ar
    33    11     5   ar
    34    32    26   ar
    35     1    12    1
    36     1    13    1
@<TRIPOS>MOLECULE
*****
 32 36 0 0 0
SMALL
GASTEIGER

@<TRIPOS>ATOM
      1 N         136.6673  137.7014  168.0080 N.pl3   1  UNL1       -0.2464
      2 C         137.8193  138.4826  167.4488 C.2     1  UNL1        0.3157
      3 N         138.4040  138.3305  166.0758 N.2     1  UNL1       -0.0614
      4 C         139.5348  139.3070  165.9429 C.3     1  UNL1        0.2309
      5 C         139.6490  140.0626  167.2336 C.ar    1  UNL1        0.0390
      6 C         140.5814  141.1488  167.6817 C.ar    1  UNL1        0.0008
      7 C         140.4535  141.7255  169.0605 C.ar    1  UNL1        0.0021
      8 C         139.3932  141.2160  169.9912 C.ar    1  UNL1        0.0299
      9 C         138.4608  140.1298  169.5431 C.ar    1  UNL1        0.1470
     10 F         137.4005  139.6203  170.4738 F       1  UNL1       -0.2039
     11 C         138.5887  139.5531  168.1643 C.ar    1  UNL1        0.1094
     12 H         136.2244  137.0155  167.4579 H       1  UNL1        0.2884
     13 H         136.3542  137.8745  168.9252 H       1  UNL1        0.2884
     14 C         139.6626  138.7303  164.5640 C.ar    1  UNL1        0.0328
     15 C         140.8621  137.9044  164.2047 C.ar    1  UNL1        0.0211
     16 C         140.9899  137.3278  162.8260 C.ar    1  UNL1        0.0987
     17 N         139.9182  137.5770  161.8065 N.ar    1  UNL1       -0.2423
     18 C         138.7187  138.4028  162.1658 C.ar    1  UNL1        0.0987
     19 C         138.5909  138.9795  163.5446 C.ar    1  UNL1        0.0211
     20 C         140.6923  140.1629  165.5217 C.ar    1  UNL1        0.0297
     21 C         142.0519  139.9284  166.1105 C.ar    1  UNL1        0.0004
     22 C         143.2095  140.7844  165.6892 C.ar    1  UNL1       -0.0002
     23 C         143.0075  141.8748  164.6792 C.ar    1  UNL1        0.0000
     24 C         141.6480  142.1093  164.0904 C.ar    1  UNL1        0.0014
     25 C         140.4904  141.2534  164.5116 C.ar    1  UNL1        0.0004
     26 C         141.4459  143.1998  163.0804 C.ar    1  UNL1        0.0214
     27 C         142.4664  143.4234  162.0039 C.ar    1  UNL1        0.0990
     28 N         142.2645  144.5137  160.9939 N.ar    1  UNL1       -0.2400
     29 C         141.0420  145.3805  161.0603 C.ar    1  UNL1        0.1284
     30 C         140.0216  145.1569  162.1367 C.ar    1  UNL1        0.1592
     31 F         138.7992  146.0237  162.2030 F       1  UNL1       -0.2025
     32 C         140.2235  144.0665  163.1468 C.ar    1  UNL1        0.0328
@<TRIPOS>BOND
     1     1     2    1
     2     2     3    2
     3     3     4    1
     4     4    14    1
     5    14    15   ar
     6    15    16   ar
     7    16    17   ar
     8    17    18   ar
     9    18    19   ar
    10     4    20    1
    11    20    21   ar
    12    21    22   ar
    13    22    23   ar
    14    23    24   ar
    15    24    26    1
    16    26    27   ar
    17    27    28   ar
    18    28    29   ar
    19    29    30   ar
    20    30    31    1
    21    30    32   ar
    22    24    25   ar
    23     4     5    1
    24     5     6   ar
    25     6     7   ar
    26     7     8   ar
    27     8     9   ar
    28     9    10    1
    29     9    11   ar
    30    11     2    1
    31    19    14   ar
    32    25    20   ar
    33    11     5   ar
    34    32    26   ar
    35     1    12    1
    36     1    13    1
@<TRIPOS>MOLECULE
*****
 32 36 0 0 0
SMALL
GASTEIGER

@<TRIPOS>ATOM
      1 N         142.1381  145.1114  161.2674 N.pl3   1  UNL1       -0.2464
      2 C         141.5673  144.0065  162.1061 C.2     1  UNL1        0.3157
      3 N         142.2840  142.7571  162.5247 N.2     1  UNL1       -0.0614
      4 C         141.3391  141.9355  163.3507 C.3     1  UNL1        0.2309
      5 C         140.0386  142.6772  163.4426 C.ar    1  UNL1        0.0390
      6 C         138.7441  142.3524  164.1274 C.ar    1  UNL1        0.0008
      7 C         137.5907  143.3075  164.0429 C.ar    1  UNL1        0.0021
      8 C         137.7317  144.5875  163.2736 C.ar    1  UNL1        0.0299
      9 C         139.0262  144.9123  162.5889 C.ar    1  UNL1        0.1470
     10 F         139.1672  146.1923  161.8196 F       1  UNL1       -0.2039
     11 C         140.1796  143.9571  162.6734 C.ar    1  UNL1        0.1094
     12 H         143.0647  145.0524  160.9399 H       1  UNL1        0.2884
     13 H         141.5862  145.8956  161.0444 H       1  UNL1        0.2884
     14 C         142.4926  140.9803  163.4352 C.ar    1  UNL1        0.0328
     15 C         143.6118  141.2392  164.3998 C.ar    1  UNL1        0.0211
     16 C         144.7652  140.2840  164.4842 C.ar    1  UNL1        0.0987
     17 N         144.7995  139.0699  163.6041 N.ar    1  UNL1       -0.2423
     18 C         143.6804  138.8109  162.6395 C.ar    1  UNL1        0.0987
     19 C         142.5270  139.7661  162.5551 C.ar    1  UNL1        0.0211
     20 C         140.6355  140.9142  164.1944 C.ar    1  UNL1        0.0297
     21 C         139.7926  139.8568  163.5450 C.ar    1  UNL1        0.0004
     22 C         139.0890  138.8355  164.3887 C.ar    1  UNL1       -0.0002
     23 C         139.2281  138.8716  165.8818 C.ar    1  UNL1        0.0000
     24 C         140.0709  139.9289  166.5312 C.ar    1  UNL1        0.0014
     25 C         140.7746  140.9502  165.6875 C.ar    1  UNL1        0.0004
     26 C         140.2101  139.9650  168.0243 C.ar    1  UNL1        0.0214
     27 C         138.9881  140.0578  168.8894 C.ar    1  UNL1        0.0990
     28 N         139.1272  140.0939  170.3824 N.ar    1  UNL1       -0.2400
     29 C         140.4883  140.0372  171.0105 C.ar    1  UNL1        0.1284
     30 C         141.7102  139.9444  170.1454 C.ar    1  UNL1        0.1592
     31 F         143.0712  139.8877  170.7735 F       1  UNL1       -0.2025
     32 C         141.5711  139.9083  168.6523 C.ar    1  UNL1        0.0328
@<TRIPOS>BOND
     1     1     2    1
     2     2     3    2
     3     3     4    1
     4     4    14    1
     5    14    15   ar
     6    15    16   ar
     7    16    17   ar
     8    17    18   ar
     9    18    19   ar
    10     4    20    1
    11    20    21   ar
    12    21    22   ar
    13    22    23   ar
    14    23    24   ar
    15    24    26    1
    16    26    27   ar
    17    27    28   ar
    18    28    29   ar
    19    29    30   ar
    20    30    31    1
    21    30    32   ar
    22    24    25   ar
    23     4     5    1
    24     5     6   ar
    25     6     7   ar
    26     7     8   ar
    27     8     9   ar
    28     9    10    1
    29     9    11   ar
    30    11     2    1
    31    19    14   ar
    32    25    20   ar
    33    11     5   ar
    34    32    26   ar
    35     1    12    1
    36     1    13    1
@<TRIPOS>MOLECULE
*****
 32 36 0 0 0
SMALL
GASTEIGER

@<TRIPOS>ATOM
      1 N         138.5571  139.9748  170.2397 N.pl3   1  UNL1       -0.2464
      2 C         139.4952  140.2798  169.1097 C.2     1  UNL1        0.3157
      3 N         139.3267  139.8483  167.6831 N.2     1  UNL1       -0.0614
      4 C         140.4939  140.3718  166.8996 C.3     1  UNL1        0.2309
      5 C         141.3836  141.1268  167.8421 C.ar    1  UNL1        0.0390
      6 C         142.6761  141.8587  167.6330 C.ar    1  UNL1        0.0008
      7 C         143.3513  142.5338  168.7898 C.ar    1  UNL1        0.0021
      8 C         142.7341  142.4770  170.1557 C.ar    1  UNL1        0.0299
      9 C         141.4416  141.7451  170.3649 C.ar    1  UNL1        0.1470
     10 F         140.8244  141.6883  171.7308 F       1  UNL1       -0.2039
     11 C         140.7664  141.0700  169.2080 C.ar    1  UNL1        0.1094
     12 H         137.7435  139.4455  170.0749 H       1  UNL1        0.2884
     13 H         138.7550  140.3038  171.1463 H       1  UNL1        0.2884
     14 C         139.8186  139.6966  165.7428 C.ar    1  UNL1        0.0328
     15 C         140.3176  138.3694  165.2536 C.ar    1  UNL1        0.0211
     16 C         139.6423  137.6943  164.0968 C.ar    1  UNL1        0.0987
     17 N         138.4680  138.3465  163.4292 N.ar    1  UNL1       -0.2423
     18 C         137.9690  139.6737  163.9184 C.ar    1  UNL1        0.0987
     19 C         138.6443  140.3488  165.0752 C.ar    1  UNL1        0.0211
     20 C         141.5198  140.7541  165.8743 C.ar    1  UNL1        0.0297
     21 C         142.8707  140.1019  165.8855 C.ar    1  UNL1        0.0004
     22 C         143.8966  140.4843  164.8603 C.ar    1  UNL1       -0.0002
     23 C         143.5718  141.5188  163.8237 C.ar    1  UNL1        0.0000
     24 C         142.2210  142.1709  163.8125 C.ar    1  UNL1        0.0014
     25 C         141.1950  141.7886  164.8378 C.ar    1  UNL1        0.0004
     26 C         141.8962  143.2054  162.7760 C.ar    1  UNL1        0.0214
     27 C         142.7775  143.3639  161.5726 C.ar    1  UNL1        0.0990
     28 N         142.4528  144.3983  160.5361 N.ar    1  UNL1       -0.2400
     29 C         141.2466  145.2743  160.7030 C.ar    1  UNL1        0.1284
     30 C         140.3652  145.1158  161.9064 C.ar    1  UNL1        0.1592
     31 F         139.1591  145.9919  162.0733 F       1  UNL1       -0.2025
     32 C         140.6901  144.0814  162.9429 C.ar    1  UNL1        0.0328
@<TRIPOS>BOND
     1     1     2    1
     2     2     3    2
     3     3     4    1
     4     4    14    1
     5    14    15   ar
     6    15    16   ar
     7    16    17   ar
     8    17    18   ar
     9    18    19   ar
    10     4    20    1
    11    20    21   ar
    12    21    22   ar
    13    22    23   ar
    14    23    24   ar
    15    24    26    1
    16    26    27   ar
    17    27    28   ar
    18    28    29   ar
    19    29    30   ar
    20    30    31    1
    21    30    32   ar
    22    24    25   ar
    23     4     5    1
    24     5     6   ar
    25     6     7   ar
    26     7     8   ar
    27     8     9   ar
    28     9    10    1
    29     9    11   ar
    30    11     2    1
    31    19    14   ar
    32    25    20   ar
    33    11     5   ar
    34    32    26   ar
    35     1    12    1
    36     1    13    1
@<TRIPOS>MOLECULE
*****
 32 36 0 0 0
SMALL
GASTEIGER

@<TRIPOS>ATOM
      1 N         141.4188  141.7753  169.3110 N.pl3   1  UNL1       -0.2464
      2 C         141.2397  141.0656  168.0017 C.2     1  UNL1        0.3157
      3 N         142.1923  141.0986  166.8434 N.2     1  UNL1       -0.0614
      4 C         141.6179  140.2517  165.7467 C.3     1  UNL1        0.2309
      5 C         140.3104  139.6952  166.2272 C.ar    1  UNL1        0.0390
      6 C         139.3025  138.7955  165.5757 C.ar    1  UNL1        0.0008
      7 C         138.0608  138.3988  166.3178 C.ar    1  UNL1        0.0021
      8 C         137.8271  138.9018  167.7115 C.ar    1  UNL1        0.0299
      9 C         138.8350  139.8015  168.3630 C.ar    1  UNL1        0.1470
     10 F         138.6013  140.3045  169.7567 F       1  UNL1       -0.2039
     11 C         140.0767  140.1983  167.6208 C.ar    1  UNL1        0.1094
     12 H         142.2207  142.3245  169.4676 H       1  UNL1        0.2884
     13 H         140.7344  141.6919  170.0137 H       1  UNL1        0.2884
     14 C         142.8596  140.6485  165.0045 C.ar    1  UNL1        0.0328
     15 C         143.9962  139.6787  164.8718 C.ar    1  UNL1        0.0211
     16 C         145.2378  140.0755  164.1296 C.ar    1  UNL1        0.0987
     17 N         145.3429  141.4421  163.5202 N.ar    1  UNL1       -0.2423
     18 C         144.2063  142.4119  163.6529 C.ar    1  UNL1        0.0987
     19 C         142.9647  142.0151  164.3951 C.ar    1  UNL1        0.0211
     20 C         141.3031  139.4877  164.4948 C.ar    1  UNL1        0.0297
     21 C         141.6617  138.0347  164.3927 C.ar    1  UNL1        0.0004
     22 C         141.3469  137.2708  163.1408 C.ar    1  UNL1       -0.0002
     23 C         140.6736  137.9597  161.9910 C.ar    1  UNL1        0.0000
     24 C         140.3150  139.4126  162.0931 C.ar    1  UNL1        0.0014
     25 C         140.6298  140.1767  163.3450 C.ar    1  UNL1        0.0004
     26 C         139.6416  140.1017  160.9434 C.ar    1  UNL1        0.0214
     27 C         138.7824  139.3161  159.9974 C.ar    1  UNL1        0.0990
     28 N         138.1091  140.0050  158.8477 N.ar    1  UNL1       -0.2400
     29 C         138.2949  141.4795  158.6439 C.ar    1  UNL1        0.1284
     30 C         139.1541  142.2650  159.5899 C.ar    1  UNL1        0.1592
     31 F         139.3398  143.7394  159.3861 F       1  UNL1       -0.2025
     32 C         139.8274  141.5760  160.7396 C.ar    1  UNL1        0.0328
@<TRIPOS>BOND
     1     1     2    1
     2     2     3    2
     3     3     4    1
     4     4    14    1
     5    14    15   ar
     6    15    16   ar
     7    16    17   ar
     8    17    18   ar
     9    18    19   ar
    10     4    20    1
    11    20    21   ar
    12    21    22   ar
    13    22    23   ar
    14    23    24   ar
    15    24    26    1
    16    26    27   ar
    17    27    28   ar
    18    28    29   ar
    19    29    30   ar
    20    30    31    1
    21    30    32   ar
    22    24    25   ar
    23     4     5    1
    24     5     6   ar
    25     6     7   ar
    26     7     8   ar
    27     8     9   ar
    28     9    10    1
    29     9    11   ar
    30    11     2    1
    31    19    14   ar
    32    25    20   ar
    33    11     5   ar
    34    32    26   ar
    35     1    12    1
    36     1    13    1
@<TRIPOS>MOLECULE
*****
 32 36 0 0 0
SMALL
GASTEIGER

@<TRIPOS>ATOM
      1 N         137.2474  139.6909  161.3045 N.pl3   1  UNL1       -0.2464
      2 C         138.4143  140.1350  162.1358 C.2     1  UNL1        0.3157
      3 N         138.9701  141.5266  162.2030 N.2     1  UNL1       -0.0614
      4 C         140.1296  141.5171  163.1546 C.3     1  UNL1        0.2309
      5 C         140.2904  140.1196  163.6755 C.ar    1  UNL1        0.0390
      6 C         141.2651  139.5146  164.6418 C.ar    1  UNL1        0.0008
      7 C         141.1797  138.0554  164.9785 C.ar    1  UNL1        0.0021
      8 C         140.1195  137.2012  164.3488 C.ar    1  UNL1        0.0299
      9 C         139.1448  137.8062  163.3825 C.ar    1  UNL1        0.1470
     10 F         138.0847  136.9521  162.7528 F       1  UNL1       -0.2039
     11 C         139.2302  139.2655  163.0458 C.ar    1  UNL1        0.1094
     12 H         136.7731  140.3395  160.7356 H       1  UNL1        0.2884
     13 H         136.9558  138.7509  161.3277 H       1  UNL1        0.2884
     14 C         140.2150  142.9764  162.8179 C.ar    1  UNL1        0.0328
     15 C         140.7937  143.4103  161.5039 C.ar    1  UNL1        0.0211
     16 C         140.8791  144.8695  161.1672 C.ar    1  UNL1        0.0987
     17 N         140.3857  145.8948  162.1447 N.ar    1  UNL1       -0.2423
     18 C         139.8070  145.4609  163.4587 C.ar    1  UNL1        0.0987
     19 C         139.7216  144.0017  163.7953 C.ar    1  UNL1        0.0211
     20 C         141.3069  141.8126  164.0358 C.ar    1  UNL1        0.0297
     21 C         142.6678  141.9972  163.4324 C.ar    1  UNL1        0.0004
     22 C         143.8452  142.2927  164.3136 C.ar    1  UNL1       -0.0002
     23 C         143.6616  142.4038  165.7982 C.ar    1  UNL1        0.0000
     24 C         142.3008  142.2193  166.4016 C.ar    1  UNL1        0.0014
     25 C         141.1234  141.9237  165.5204 C.ar    1  UNL1        0.0004
     26 C         142.1172  142.3303  167.8862 C.ar    1  UNL1        0.0214
     27 C         143.3148  142.3922  168.7874 C.ar    1  UNL1        0.0990
     28 N         143.1313  142.5033  170.2719 N.ar    1  UNL1       -0.2400
     29 C         141.7502  142.5524  170.8553 C.ar    1  UNL1        0.1284
     30 C         140.5527  142.4904  169.9542 C.ar    1  UNL1        0.1592
     31 F         139.1717  142.5395  170.5376 F       1  UNL1       -0.2025
     32 C         140.7362  142.3794  168.4696 C.ar    1  UNL1        0.0328
@<TRIPOS>BOND
     1     1     2    1
     2     2     3    2
     3     3     4    1
     4     4    14    1
     5    14    15   ar
     6    15    16   ar
     7    16    17   ar
     8    17    18   ar
     9    18    19   ar
    10     4    20    1
    11    20    21   ar
    12    21    22   ar
    13    22    23   ar
    14    23    24   ar
    15    24    26    1
    16    26    27   ar
    17    27    28   ar
    18    28    29   ar
    19    29    30   ar
    20    30    31    1
    21    30    32   ar
    22    24    25   ar
    23     4     5    1
    24     5     6   ar
    25     6     7   ar
    26     7     8   ar
    27     8     9   ar
    28     9    10    1
    29     9    11   ar
    30    11     2    1
    31    19    14   ar
    32    25    20   ar
    33    11     5   ar
    34    32    26   ar
    35     1    12    1
    36     1    13    1
@<TRIPOS>MOLECULE
*****
 32 36 0 0 0
SMALL
GASTEIGER

@<TRIPOS>ATOM
      1 N         143.3901  142.9745  170.1395 N.pl3   1  UNL1       -0.2464
      2 C         142.7866  142.2165  168.9944 C.2     1  UNL1        0.3157
      3 N         143.3837  142.0622  167.6270 N.2     1  UNL1       -0.0614
      4 C         142.4462  141.2301  166.8032 C.3     1  UNL1        0.2309
      5 C         141.2698  140.8701  167.6614 C.ar    1  UNL1        0.0390
      6 C         140.0342  140.0660  167.3847 C.ar    1  UNL1        0.0008
      7 C         139.0090  139.8715  168.4622 C.ar    1  UNL1        0.0021
      8 C         139.2194  140.4811  169.8165 C.ar    1  UNL1        0.0299
      9 C         140.4550  141.2853  170.0932 C.ar    1  UNL1        0.1470
     10 F         140.6655  141.8949  171.4475 F       1  UNL1       -0.2039
     11 C         141.4802  141.4798  169.0157 C.ar    1  UNL1        0.1094
     12 H         144.2568  143.4278  170.0275 H       1  UNL1        0.2884
     13 H         142.9195  143.0186  171.0031 H       1  UNL1        0.2884
     14 C         143.4714  141.4247  165.7256 C.ar    1  UNL1        0.0328
     15 C         144.1576  140.2363  165.1199 C.ar    1  UNL1        0.0211
     16 C         145.1828  140.4309  164.0424 C.ar    1  UNL1        0.0987
     17 N         145.5218  141.8138  163.5706 N.ar    1  UNL1       -0.2423
     18 C         144.8356  143.0021  164.1763 C.ar    1  UNL1        0.0987
     19 C         143.8104  142.8076  165.2538 C.ar    1  UNL1        0.0211
     20 C         141.7230  140.4387  165.7541 C.ar    1  UNL1        0.0297
     21 C         141.7355  138.9395  165.8041 C.ar    1  UNL1        0.0004
     22 C         141.0123  138.1481  164.7549 C.ar    1  UNL1       -0.0002
     23 C         140.2767  138.8557  163.6558 C.ar    1  UNL1        0.0000
     24 C         140.2642  140.3548  163.6058 C.ar    1  UNL1        0.0014
     25 C         140.9874  141.1463  164.6549 C.ar    1  UNL1        0.0004
     26 C         139.5287  141.0626  162.5067 C.ar    1  UNL1        0.0214
     27 C         139.1245  142.4971  162.6774 C.ar    1  UNL1        0.0990
     28 N         138.3890  143.2049  161.5784 N.ar    1  UNL1       -0.2400
     29 C         138.0575  142.4782  160.3086 C.ar    1  UNL1        0.1284
     30 C         138.4616  141.0438  160.1380 C.ar    1  UNL1        0.1592
     31 F         138.1302  140.3173  158.8682 F       1  UNL1       -0.2025
     32 C         139.1972  140.3360  161.2370 C.ar    1  UNL1        0.0328
@<TRIPOS>BOND
     1     1     2    1
     2     2     3    2
     3     3     4    1
     4     4    14    1
     5    14    15   ar
     6    15    16   ar
     7    16    17   ar
     8    17    18   ar
     9    18    19   ar
    10     4    20    1
    11    20    21   ar
    12    21    22   ar
    13    22    23   ar
    14    23    24   ar
    15    24    26    1
    16    26    27   ar
    17    27    28   ar
    18    28    29   ar
    19    29    30   ar
    20    30    31    1
    21    30    32   ar
    22    24    25   ar
    23     4     5    1
    24     5     6   ar
    25     6     7   ar
    26     7     8   ar
    27     8     9   ar
    28     9    10    1
    29     9    11   ar
    30    11     2    1
    31    19    14   ar
    32    25    20   ar
    33    11     5   ar
    34    32    26   ar
    35     1    12    1
    36     1    13    1
@<TRIPOS>MOLECULE
*****
 32 36 0 0 0
SMALL
GASTEIGER

@<TRIPOS>ATOM
      1 N         137.8119  139.8549  170.2201 N.pl3   1  UNL1       -0.2464
      2 C         138.9785  139.8774  169.2775 C.2     1  UNL1        0.3157
      3 N         138.9262  139.6063  167.8032 N.2     1  UNL1       -0.0614
      4 C         140.3177  139.7363  167.2583 C.3     1  UNL1        0.2309
      5 C         141.2300  140.0877  168.3960 C.ar    1  UNL1        0.0390
      6 C         142.7074  140.3395  168.4567 C.ar    1  UNL1        0.0008
      7 C         143.3572  140.6785  169.7654 C.ar    1  UNL1        0.0021
      8 C         142.5296  140.7657  171.0134 C.ar    1  UNL1        0.0299
      9 C         141.0522  140.5139  170.9526 C.ar    1  UNL1        0.1470
     10 F         140.2245  140.6011  172.2006 F       1  UNL1       -0.2039
     11 C         140.4024  140.1749  169.6439 C.ar    1  UNL1        0.1094
     12 H         136.9105  139.6478  169.8828 H       1  UNL1        0.2884
     13 H         137.9476  140.0472  171.1760 H       1  UNL1        0.2884
     14 C         139.6678  139.3972  165.9496 C.ar    1  UNL1        0.0328
     15 C         139.8659  138.0396  165.3433 C.ar    1  UNL1        0.0211
     16 C         139.2161  137.7006  164.0346 C.ar    1  UNL1        0.0987
     17 N         138.3681  138.7193  163.3322 N.ar    1  UNL1       -0.2423
     18 C         138.1700  140.0769  163.9385 C.ar    1  UNL1        0.0987
     19 C         138.8198  140.4158  165.2472 C.ar    1  UNL1        0.0211
     20 C         141.5733  139.7954  166.4399 C.ar    1  UNL1        0.0297
     21 C         142.5060  138.6209  166.4114 C.ar    1  UNL1        0.0004
     22 C         143.7616  138.6799  165.5929 C.ar    1  UNL1       -0.0002
     23 C         144.0846  139.9135  164.8030 C.ar    1  UNL1        0.0000
     24 C         143.1520  141.0880  164.8314 C.ar    1  UNL1        0.0014
     25 C         141.8963  141.0289  165.6499 C.ar    1  UNL1        0.0004
     26 C         143.4749  142.3216  164.0415 C.ar    1  UNL1        0.0214
     27 C         143.5665  143.6508  164.7307 C.ar    1  UNL1        0.0990
     28 N         143.8894  144.8844  163.9410 N.ar    1  UNL1       -0.2400
     29 C         144.1208  144.7889  162.4619 C.ar    1  UNL1        0.1284
     30 C         144.0292  143.4597  161.7728 C.ar    1  UNL1        0.1592
     31 F         144.2605  143.3642  160.2938 F       1  UNL1       -0.2025
     32 C         143.7062  142.2260  162.5626 C.ar    1  UNL1        0.0328
@<TRIPOS>BOND
     1     1     2    1
     2     2     3    2
     3     3     4    1
     4     4    14    1
     5    14    15   ar
     6    15    16   ar
     7    16    17   ar
     8    17    18   ar
     9    18    19   ar
    10     4    20    1
    11    20    21   ar
    12    21    22   ar
    13    22    23   ar
    14    23    24   ar
    15    24    26    1
    16    26    27   ar
    17    27    28   ar
    18    28    29   ar
    19    29    30   ar
    20    30    31    1
    21    30    32   ar
    22    24    25   ar
    23     4     5    1
    24     5     6   ar
    25     6     7   ar
    26     7     8   ar
    27     8     9   ar
    28     9    10    1
    29     9    11   ar
    30    11     2    1
    31    19    14   ar
    32    25    20   ar
    33    11     5   ar
    34    32    26   ar
    35     1    12    1
    36     1    13    1
