@<TRIPOS>MOLECULE
*****
 24 26 0 0 0
SMALL
GASTEIGER

@<TRIPOS>ATOM
      1 C         139.7481  143.9342  163.6233 C.ar    1  UNL1        0.1073
      2 C         140.7949  143.9314  164.6976 C.ar    1  UNL1        0.0199
      3 C         140.8782  142.7844  165.6607 C.ar    1  UNL1        0.0201
      4 C         139.9147  141.6403  165.5495 C.ar    1  UNL1        0.0791
      5 C         138.8679  141.6431  164.4753 C.ar    1  UNL1        0.0999
      6 C         138.7846  142.7900  163.5122 C.ar    1  UNL1        0.0389
      7 N         138.0609  140.3858  164.6110 N.ar    1  UNL1       -0.2232
      8 C         138.6091  139.6061  165.7693 C.ar    1  UNL1        0.2167
      9 N         139.7548  140.3814  166.3493 N.ar    1  UNL1       -0.3040
     10 C         139.5816  146.2281  161.6971 C.3     1  UNL1        0.1816
     11 S         139.6649  145.0811  162.6602 S.O2    1  UNL1        0.0105
     12 O         138.1990  144.8208  162.4770 O.2     1  UNL1       -0.1686
     13 O         141.1307  145.3414  162.8435 O.2     1  UNL1       -0.1686
     14 C         138.1009  138.2833  166.2611 C.3     1  UNL1        0.4506
     15 F         137.5926  136.9605  166.7531 F       1  UNL1       -0.1632
     16 F         137.3921  138.9746  167.3879 F       1  UNL1       -0.1632
     17 F         138.8097  137.5919  165.1343 F       1  UNL1       -0.1632
     18 C         140.5933  139.9700  167.5230 C.3     1  UNL1        0.1341
     19 C         141.2033  141.0133  168.4114 C.ar    1  UNL1        0.0004
     20 C         142.6950  141.1385  168.5065 C.ar    1  UNL1       -0.0024
     21 C         143.3050  142.1819  169.3950 C.ar    1  UNL1       -0.0003
     22 C         142.4232  143.1001  170.1884 C.ar    1  UNL1       -0.0000
     23 C         140.9315  142.9749  170.0933 C.ar    1  UNL1       -0.0003
     24 C         140.3216  141.9315  169.2048 C.ar    1  UNL1       -0.0024
@<TRIPOS>BOND
     1    10    11    1
     2    11    12    2
     3    11    13    2
     4    11     1    1
     5     1     2   ar
     6     2     3   ar
     7     3     4   ar
     8     4     5   ar
     9     5     6   ar
    10     5     7   ar
    11     7     8   ar
    12     8    14    1
    13    14    15    1
    14    14    16    1
    15    14    17    1
    16     8     9   ar
    17     9    18    1
    18    18    19    1
    19    19    20   ar
    20    20    21   ar
    21    21    22   ar
    22    22    23   ar
    23    23    24   ar
    24     6     1   ar
    25    24    19   ar
    26     9     4   ar
@<TRIPOS>MOLECULE
*****
 24 26 0 0 0
SMALL
GASTEIGER

@<TRIPOS>ATOM
      1 C         139.9302  143.8397  163.4358 C.ar    1  UNL1        0.1073
      2 C         141.1964  143.6177  164.2085 C.ar    1  UNL1        0.0199
      3 C         141.3551  142.3865  165.0506 C.ar    1  UNL1        0.0201
      4 C         140.2476  141.3774  165.1199 C.ar    1  UNL1        0.0791
      5 C         138.9813  141.5994  164.3471 C.ar    1  UNL1        0.0999
      6 C         138.8226  142.8306  163.5051 C.ar    1  UNL1        0.0389
      7 N         138.0688  140.4378  164.6087 N.ar    1  UNL1       -0.2232
      8 C         138.7713  139.4980  165.5432 C.ar    1  UNL1        0.2167
      9 N         140.1178  140.0786  165.8591 N.ar    1  UNL1       -0.3040
     10 C         139.6128  146.3020  161.7516 C.3     1  UNL1        0.1816
     11 S         139.7715  145.0709  162.5937 S.O2    1  UNL1        0.0105
     12 O         141.1564  145.5070  162.9704 O.2     1  UNL1       -0.1686
     13 O         138.3866  144.6347  162.2170 O.2     1  UNL1       -0.1686
     14 C         138.2234  138.2045  166.0694 C.3     1  UNL1        0.4506
     15 F         137.6756  136.9111  166.5955 F       1  UNL1       -0.1632
     16 F         138.9305  137.4602  164.9758 F       1  UNL1       -0.1632
     17 F         137.5163  138.9489  167.1630 F       1  UNL1       -0.1632
     18 C         141.1528  139.4678  166.7566 C.3     1  UNL1        0.1341
     19 C         141.2873  139.9376  168.1747 C.ar    1  UNL1        0.0004
     20 C         140.0609  140.2180  168.9915 C.ar    1  UNL1       -0.0024
     21 C         140.1955  140.6879  170.4098 C.ar    1  UNL1       -0.0003
     22 C         141.5566  140.8773  171.0111 C.ar    1  UNL1       -0.0000
     23 C         142.7830  140.5969  170.1943 C.ar    1  UNL1       -0.0003
     24 C         142.6484  140.1270  168.7762 C.ar    1  UNL1       -0.0024
@<TRIPOS>BOND
     1    10    11    1
     2    11    12    2
     3    11    13    2
     4    11     1    1
     5     1     2   ar
     6     2     3   ar
     7     3     4   ar
     8     4     5   ar
     9     5     6   ar
    10     5     7   ar
    11     7     8   ar
    12     8    14    1
    13    14    15    1
    14    14    16    1
    15    14    17    1
    16     8     9   ar
    17     9    18    1
    18    18    19    1
    19    19    20   ar
    20    20    21   ar
    21    21    22   ar
    22    22    23   ar
    23    23    24   ar
    24     6     1   ar
    25    24    19   ar
    26     9     4   ar
@<TRIPOS>MOLECULE
*****
 24 26 0 0 0
SMALL
GASTEIGER

@<TRIPOS>ATOM
      1 C         140.7644  143.7972  162.1113 C.ar    1  UNL1        0.1073
      2 C         139.9712  144.0956  163.3489 C.ar    1  UNL1        0.0199
      3 C         140.0768  143.1939  164.5430 C.ar    1  UNL1        0.0201
      4 C         140.9756  141.9938  164.4994 C.ar    1  UNL1        0.0791
      5 C         141.7687  141.6954  163.2618 C.ar    1  UNL1        0.0999
      6 C         141.6632  142.5971  162.0677 C.ar    1  UNL1        0.0389
      7 N         142.5654  140.4490  163.5110 N.ar    1  UNL1       -0.2232
      8 C         142.2646  139.9772  164.9027 C.ar    1  UNL1        0.2167
      9 N         141.2820  140.9319  165.5136 N.ar    1  UNL1       -0.3040
     10 C         140.5532  145.6005  159.7231 C.3     1  UNL1        0.1816
     11 S         140.6588  144.6988  160.9172 S.O2    1  UNL1        0.0105
     12 O         139.1799  144.8180  161.1379 O.2     1  UNL1       -0.1686
     13 O         142.1377  144.5797  160.6965 O.2     1  UNL1       -0.1686
     14 C         142.8445  138.7637  165.5670 C.3     1  UNL1        0.4506
     15 F         143.4243  137.5503  166.2313 F       1  UNL1       -0.1632
     16 F         141.5344  138.0508  165.4081 F       1  UNL1       -0.1632
     17 F         144.1546  139.4768  165.7259 F       1  UNL1       -0.1632
     18 C         140.7068  140.8408  166.8959 C.3     1  UNL1        0.1341
     19 C         141.3399  141.6009  168.0234 C.ar    1  UNL1        0.0004
     20 C         142.7489  141.2945  168.4366 C.ar    1  UNL1       -0.0024
     21 C         143.3820  142.0548  169.5642 C.ar    1  UNL1       -0.0003
     22 C         142.6061  143.1214  170.2784 C.ar    1  UNL1       -0.0000
     23 C         141.1971  143.4279  169.8652 C.ar    1  UNL1       -0.0003
     24 C         140.5640  142.6676  168.7377 C.ar    1  UNL1       -0.0024
@<TRIPOS>BOND
     1    10    11    1
     2    11    12    2
     3    11    13    2
     4    11     1    1
     5     1     2   ar
     6     2     3   ar
     7     3     4   ar
     8     4     5   ar
     9     5     6   ar
    10     5     7   ar
    11     7     8   ar
    12     8    14    1
    13    14    15    1
    14    14    16    1
    15    14    17    1
    16     8     9   ar
    17     9    18    1
    18    18    19    1
    19    19    20   ar
    20    20    21   ar
    21    21    22   ar
    22    22    23   ar
    23    23    24   ar
    24     6     1   ar
    25    24    19   ar
    26     9     4   ar
@<TRIPOS>MOLECULE
*****
 24 26 0 0 0
SMALL
GASTEIGER

@<TRIPOS>ATOM
      1 C         138.8483  141.1283  159.1907 C.ar    1  UNL1        0.1073
      2 C         139.7347  140.2235  159.9942 C.ar    1  UNL1        0.0199
      3 C         140.0461  140.5547  161.4237 C.ar    1  UNL1        0.0201
      4 C         139.4712  141.7907  162.0496 C.ar    1  UNL1        0.0791
      5 C         138.5849  142.6954  161.2460 C.ar    1  UNL1        0.0999
      6 C         138.2734  142.3642  159.8166 C.ar    1  UNL1        0.0389
      7 N         138.1663  143.8356  162.1263 N.ar    1  UNL1       -0.2232
      8 C         138.7939  143.6355  163.4739 C.ar    1  UNL1        0.2167
      9 N         139.6005  142.3716  163.4264 N.ar    1  UNL1       -0.3040
     10 C         138.2255  140.4658  156.3318 C.3     1  UNL1        0.1816
     11 S         138.5369  140.7971  157.7613 S.O2    1  UNL1        0.0105
     12 O         137.1863  140.2906  158.1729 O.2     1  UNL1       -0.1686
     13 O         139.8875  141.3035  157.3497 O.2     1  UNL1       -0.1686
     14 C         138.6418  144.5403  164.6606 C.3     1  UNL1        0.4506
     15 F         138.4897  145.4451  165.8472 F       1  UNL1       -0.1632
     16 F         137.2817  143.9655  164.9245 F       1  UNL1       -0.1632
     17 F         140.0020  145.1152  164.3966 F       1  UNL1       -0.1632
     18 C         140.3964  141.7907  164.5573 C.3     1  UNL1        0.1341
     19 C         139.7260  140.9156  165.5745 C.ar    1  UNL1        0.0004
     20 C         140.1366  140.9901  167.0153 C.ar    1  UNL1       -0.0024
     21 C         139.4661  140.1149  168.0325 C.ar    1  UNL1       -0.0003
     22 C         138.3851  139.1653  167.6089 C.ar    1  UNL1       -0.0000
     23 C         137.9745  139.0907  166.1681 C.ar    1  UNL1       -0.0003
     24 C         138.6449  139.9659  165.1510 C.ar    1  UNL1       -0.0024
@<TRIPOS>BOND
     1    10    11    1
     2    11    12    2
     3    11    13    2
     4    11     1    1
     5     1     2   ar
     6     2     3   ar
     7     3     4   ar
     8     4     5   ar
     9     5     6   ar
    10     5     7   ar
    11     7     8   ar
    12     8    14    1
    13    14    15    1
    14    14    16    1
    15    14    17    1
    16     8     9   ar
    17     9    18    1
    18    18    19    1
    19    19    20   ar
    20    20    21   ar
    21    21    22   ar
    22    22    23   ar
    23    23    24   ar
    24     6     1   ar
    25    24    19   ar
    26     9     4   ar
@<TRIPOS>MOLECULE
*****
 24 26 0 0 0
SMALL
GASTEIGER

@<TRIPOS>ATOM
      1 C         143.4663  141.4556  162.6988 C.ar    1  UNL1        0.1073
      2 C         144.0900  141.5588  164.0590 C.ar    1  UNL1        0.0199
      3 C         143.3713  141.0128  165.2571 C.ar    1  UNL1        0.0201
      4 C         142.0288  140.3637  165.0950 C.ar    1  UNL1        0.0791
      5 C         141.4051  140.2605  163.7348 C.ar    1  UNL1        0.0999
      6 C         142.1238  140.8064  162.5367 C.ar    1  UNL1        0.0389
      7 N         140.0805  139.5723  163.8832 N.ar    1  UNL1       -0.2232
      8 C         139.8856  139.2503  165.3352 C.ar    1  UNL1        0.2167
      9 N         141.0898  139.7393  166.0841 N.ar    1  UNL1       -0.3040
     10 C         144.9037  142.5475  160.3027 C.3     1  UNL1        0.1816
     11 S         144.1850  142.0015  161.5007 S.O2    1  UNL1        0.0105
     12 O         145.5004  141.7618  162.1806 O.2     1  UNL1       -0.1686
     13 O         142.8695  142.2413  160.8209 O.2     1  UNL1       -0.1686
     14 C         138.6956  138.5603  165.9333 C.3     1  UNL1        0.4506
     15 F         137.5056  137.8703  166.5315 F       1  UNL1       -0.1632
     16 F         138.2286  139.8644  166.5086 F       1  UNL1       -0.1632
     17 F         139.1626  137.2560  165.3580 F       1  UNL1       -0.1632
     18 C         141.3153  139.6243  167.5626 C.3     1  UNL1        0.1341
     19 C         141.5083  140.8602  168.3903 C.ar    1  UNL1        0.0004
     20 C         142.8471  141.1533  168.9998 C.ar    1  UNL1       -0.0024
     21 C         143.0400  142.3893  169.8276 C.ar    1  UNL1       -0.0003
     22 C         141.8940  143.3323  170.0458 C.ar    1  UNL1       -0.0000
     23 C         140.5551  143.0392  169.4362 C.ar    1  UNL1       -0.0003
     24 C         140.3623  141.8032  168.6085 C.ar    1  UNL1       -0.0024
@<TRIPOS>BOND
     1    10    11    1
     2    11    12    2
     3    11    13    2
     4    11     1    1
     5     1     2   ar
     6     2     3   ar
     7     3     4   ar
     8     4     5   ar
     9     5     6   ar
    10     5     7   ar
    11     7     8   ar
    12     8    14    1
    13    14    15    1
    14    14    16    1
    15    14    17    1
    16     8     9   ar
    17     9    18    1
    18    18    19    1
    19    19    20   ar
    20    20    21   ar
    21    21    22   ar
    22    22    23   ar
    23    23    24   ar
    24     6     1   ar
    25    24    19   ar
    26     9     4   ar
@<TRIPOS>MOLECULE
*****
 24 26 0 0 0
SMALL
GASTEIGER

@<TRIPOS>ATOM
      1 C         138.1844  141.1452  159.3255 C.ar    1  UNL1        0.1073
      2 C         138.1382  139.9737  160.2611 C.ar    1  UNL1        0.0199
      3 C         138.1829  140.1959  161.7439 C.ar    1  UNL1        0.0201
      4 C         138.2737  141.5896  162.2910 C.ar    1  UNL1        0.0791
      5 C         138.3198  142.7611  161.3554 C.ar    1  UNL1        0.0999
      6 C         138.2751  142.5389  159.8726 C.ar    1  UNL1        0.0389
      7 N         138.4084  144.0104  162.1809 N.ar    1  UNL1       -0.2232
      8 C         138.4170  143.6110  163.6267 C.ar    1  UNL1        0.2167
      9 N         138.3338  142.1149  163.6947 N.ar    1  UNL1       -0.3040
     10 C         138.0951  140.7008  156.3599 C.3     1  UNL1        0.1816
     11 S         138.1397  140.9230  157.8427 S.O2    1  UNL1        0.0105
     12 O         137.6719  142.3345  157.6453 O.2     1  UNL1       -0.1686
     13 O         138.6076  139.5116  158.0401 O.2     1  UNL1       -0.1686
     14 C         138.4952  144.5440  164.7987 C.3     1  UNL1        0.4506
     15 F         138.5734  145.4768  165.9707 F       1  UNL1       -0.1632
     16 F         139.9609  144.7385  164.5460 F       1  UNL1       -0.1632
     17 F         137.0294  144.3493  165.0514 F       1  UNL1       -0.1632
     18 C         138.3141  141.2890  164.9467 C.3     1  UNL1        0.1341
     19 C         139.6013  140.9237  165.6247 C.ar    1  UNL1        0.0004
     20 C         140.3058  139.6505  165.2605 C.ar    1  UNL1       -0.0024
     21 C         141.5931  139.2853  165.9385 C.ar    1  UNL1       -0.0003
     22 C         142.1758  140.1933  166.9807 C.ar    1  UNL1       -0.0000
     23 C         141.4712  141.4664  167.3449 C.ar    1  UNL1       -0.0003
     24 C         140.1840  141.8316  166.6669 C.ar    1  UNL1       -0.0024
@<TRIPOS>BOND
     1    10    11    1
     2    11    12    2
     3    11    13    2
     4    11     1    1
     5     1     2   ar
     6     2     3   ar
     7     3     4   ar
     8     4     5   ar
     9     5     6   ar
    10     5     7   ar
    11     7     8   ar
    12     8    14    1
    13    14    15    1
    14    14    16    1
    15    14    17    1
    16     8     9   ar
    17     9    18    1
    18    18    19    1
    19    19    20   ar
    20    20    21   ar
    21    21    22   ar
    22    22    23   ar
    23    23    24   ar
    24     6     1   ar
    25    24    19   ar
    26     9     4   ar
@<TRIPOS>MOLECULE
*****
 24 26 0 0 0
SMALL
GASTEIGER

@<TRIPOS>ATOM
      1 C         140.0216  140.8667  168.4761 C.ar    1  UNL1        0.1073
      2 C         140.5792  142.2045  168.0896 C.ar    1  UNL1        0.0199
      3 C         140.4148  142.7087  166.6865 C.ar    1  UNL1        0.0201
      4 C         139.6928  141.8750  165.6698 C.ar    1  UNL1        0.0791
      5 C         139.1353  140.5372  166.0562 C.ar    1  UNL1        0.0999
      6 C         139.2997  140.0331  167.4594 C.ar    1  UNL1        0.0389
      7 N         138.4762  139.9428  164.8469 N.ar    1  UNL1       -0.2232
      8 C         138.6265  140.9132  163.7131 C.ar    1  UNL1        0.2167
      9 N         139.3784  142.1074  164.2216 N.ar    1  UNL1       -0.3040
     10 C         140.3504  139.8585  171.2824 C.3     1  UNL1        0.1816
     11 S         140.1860  140.3626  169.8792 S.O2    1  UNL1        0.0105
     12 O         138.9777  141.1446  170.3017 O.2     1  UNL1       -0.1686
     13 O         141.3943  139.5807  169.4567 O.2     1  UNL1       -0.1686
     14 C         138.1148  140.7230  162.3159 C.3     1  UNL1        0.4506
     15 F         137.6031  140.5327  160.9188 F       1  UNL1       -0.1632
     16 F         139.3240  139.8994  161.9852 F       1  UNL1       -0.1632
     17 F         136.9055  141.5466  162.6467 F       1  UNL1       -0.1632
     18 C         139.7506  143.3210  163.4224 C.3     1  UNL1        0.1341
     19 C         141.1950  143.6658  163.2108 C.ar    1  UNL1        0.0004
     20 C         142.0318  142.8474  162.2728 C.ar    1  UNL1       -0.0024
     21 C         143.4763  143.1922  162.0612 C.ar    1  UNL1       -0.0003
     22 C         144.0838  144.3555  162.7877 C.ar    1  UNL1       -0.0000
     23 C         143.2470  145.1739  163.7257 C.ar    1  UNL1       -0.0003
     24 C         141.8026  144.8290  163.9372 C.ar    1  UNL1       -0.0024
@<TRIPOS>BOND
     1    10    11    1
     2    11    12    2
     3    11    13    2
     4    11     1    1
     5     1     2   ar
     6     2     3   ar
     7     3     4   ar
     8     4     5   ar
     9     5     6   ar
    10     5     7   ar
    11     7     8   ar
    12     8    14    1
    13    14    15    1
    14    14    16    1
    15    14    17    1
    16     8     9   ar
    17     9    18    1
    18    18    19    1
    19    19    20   ar
    20    20    21   ar
    21    21    22   ar
    22    22    23   ar
    23    23    24   ar
    24     6     1   ar
    25    24    19   ar
    26     9     4   ar
@<TRIPOS>MOLECULE
*****
 24 26 0 0 0
SMALL
GASTEIGER

@<TRIPOS>ATOM
      1 C         140.4100  140.8888  168.3885 C.ar    1  UNL1        0.1073
      2 C         141.1790  141.8364  167.5164 C.ar    1  UNL1        0.0199
      3 C         141.0171  141.7833  166.0261 C.ar    1  UNL1        0.0201
      4 C         140.0863  140.7827  165.4079 C.ar    1  UNL1        0.0791
      5 C         139.3173  139.8351  166.2801 C.ar    1  UNL1        0.0999
      6 C         139.4791  139.8881  167.7704 C.ar    1  UNL1        0.0389
      7 N         138.4796  138.9636  165.3919 N.ar    1  UNL1       -0.2232
      8 C         138.7309  139.3726  163.9708 C.ar    1  UNL1        0.2167
      9 N         139.7239  140.4969  163.9807 N.ar    1  UNL1       -0.3040
     10 C         140.7337  140.9949  171.3691 C.3     1  UNL1        0.1816
     11 S         140.5718  140.9419  169.8788 S.O2    1  UNL1        0.0105
     12 O         141.6226  142.0015  169.7270 O.2     1  UNL1       -0.1686
     13 O         139.5211  139.8822  170.0307 O.2     1  UNL1       -0.1686
     14 C         138.1000  138.7642  162.7534 C.3     1  UNL1        0.4506
     15 F         137.4692  138.1559  161.5361 F       1  UNL1       -0.1632
     16 F         137.3500  140.0392  162.5049 F       1  UNL1       -0.1632
     17 F         138.8501  137.4892  163.0019 F       1  UNL1       -0.1632
     18 C         140.2603  141.2101  162.7751 C.3     1  UNL1        0.1341
     19 C         140.0289  142.6829  162.6103 C.ar    1  UNL1        0.0004
     20 C         141.1133  143.5544  162.0493 C.ar    1  UNL1       -0.0024
     21 C         140.8818  145.0273  161.8845 C.ar    1  UNL1       -0.0003
     22 C         139.5660  145.6287  162.2807 C.ar    1  UNL1       -0.0000
     23 C         138.4816  144.7572  162.8417 C.ar    1  UNL1       -0.0003
     24 C         138.7131  143.2844  163.0065 C.ar    1  UNL1       -0.0024
@<TRIPOS>BOND
     1    10    11    1
     2    11    12    2
     3    11    13    2
     4    11     1    1
     5     1     2   ar
     6     2     3   ar
     7     3     4   ar
     8     4     5   ar
     9     5     6   ar
    10     5     7   ar
    11     7     8   ar
    12     8    14    1
    13    14    15    1
    14    14    16    1
    15    14    17    1
    16     8     9   ar
    17     9    18    1
    18    18    19    1
    19    19    20   ar
    20    20    21   ar
    21    21    22   ar
    22    22    23   ar
    23    23    24   ar
    24     6     1   ar
    25    24    19   ar
    26     9     4   ar
@<TRIPOS>MOLECULE
*****
 24 26 0 0 0
SMALL
GASTEIGER

@<TRIPOS>ATOM
      1 C         142.7469  142.2358  161.4923 C.ar    1  UNL1        0.1073
      2 C         142.7153  143.4453  162.3788 C.ar    1  UNL1        0.0199
      3 C         141.9590  143.4066  163.6736 C.ar    1  UNL1        0.0201
      4 C         141.2343  142.1584  164.0818 C.ar    1  UNL1        0.0791
      5 C         141.2658  140.9489  163.1953 C.ar    1  UNL1        0.0999
      6 C         142.0221  140.9876  161.9005 C.ar    1  UNL1        0.0389
      7 N         140.4623  139.8684  163.8564 N.ar    1  UNL1       -0.2232
      8 C         139.9342  140.4102  165.1516 C.ar    1  UNL1        0.2167
      9 N         140.4113  141.8255  165.2909 N.ar    1  UNL1       -0.3040
     10 C         144.2595  142.3132  158.9027 C.3     1  UNL1        0.1816
     11 S         143.5032  142.2745  160.1975 S.O2    1  UNL1        0.0105
     12 O         143.0881  143.7020  159.9977 O.2     1  UNL1       -0.1686
     13 O         143.9183  140.8470  160.3973 O.2     1  UNL1       -0.1686
     14 C         139.0790  139.6672  166.1349 C.3     1  UNL1        0.4506
     15 F         138.2240  138.9243  167.1181 F       1  UNL1       -0.1632
     16 F         140.2845  139.4119  166.9902 F       1  UNL1       -0.1632
     17 F         137.8735  139.9226  165.2794 F       1  UNL1       -0.1632
     18 C         140.1170  142.7463  166.4379 C.3     1  UNL1        0.1341
     19 C         140.9963  142.7353  167.6531 C.ar    1  UNL1        0.0004
     20 C         140.4812  143.2700  168.9565 C.ar    1  UNL1       -0.0024
     21 C         141.3606  143.2590  170.1717 C.ar    1  UNL1       -0.0003
     22 C         142.7550  142.7134  170.0835 C.ar    1  UNL1       -0.0000
     23 C         143.2702  142.1788  168.7801 C.ar    1  UNL1       -0.0003
     24 C         142.3908  142.1897  167.5650 C.ar    1  UNL1       -0.0024
@<TRIPOS>BOND
     1    10    11    1
     2    11    12    2
     3    11    13    2
     4    11     1    1
     5     1     2   ar
     6     2     3   ar
     7     3     4   ar
     8     4     5   ar
     9     5     6   ar
    10     5     7   ar
    11     7     8   ar
    12     8    14    1
    13    14    15    1
    14    14    16    1
    15    14    17    1
    16     8     9   ar
    17     9    18    1
    18    18    19    1
    19    19    20   ar
    20    20    21   ar
    21    21    22   ar
    22    22    23   ar
    23    23    24   ar
    24     6     1   ar
    25    24    19   ar
    26     9     4   ar
