@<TRIPOS>MOLECULE
*****
 45 48 0 0 0
SMALL
GASTEIGER

@<TRIPOS>ATOM
      1 C         139.8908  143.8682  159.3757 C.3     1  UNL1        0.0700
      2 N         138.9279  143.9433  163.1351 N.3     1  UNL1       -0.2689
      3 C         137.8778  143.0241  162.5852 C.3     1  UNL1        0.0725
      4 C         138.1107  142.8840  161.1100 C.3     1  UNL1        0.0201
      5 C         139.3047  143.7168  160.7481 C.3     1  UNL1        0.0331
      6 C         139.8098  144.3714  161.9996 C.3     1  UNL1        0.0738
      7 C         139.0710  144.3612  164.5685 C.3     1  UNL1        0.0991
      8 C         141.8829  142.1392  167.2899 C.ar    1  UNL1        0.1306
      9 C         142.2533  142.3691  165.8547 C.ar    1  UNL1        0.0106
     10 C         141.3160  143.1098  164.9476 C.ar    1  UNL1       -0.0042
     11 C         140.0083  143.6205  165.4757 C.ar    1  UNL1       -0.0066
     12 C         139.6378  143.3906  166.9109 C.ar    1  UNL1       -0.0042
     13 C         140.5751  142.6499  167.8180 C.ar    1  UNL1        0.0106
     14 C         143.5611  141.8583  165.3265 C.3     1  UNL1        0.0218
     15 C         144.1552  143.2279  165.4729 C.3     1  UNL1        0.0045
     16 C         142.9671  140.4888  165.1801 C.3     1  UNL1        0.0045
     17 C         144.8688  141.3476  164.7984 C.3     1  UNL1        0.0045
     18 C         140.2047  142.4200  169.2533 C.3     1  UNL1        0.0218
     19 C         140.5828  143.8349  169.5775 C.3     1  UNL1        0.0045
     20 C         139.8265  141.0052  168.9291 C.3     1  UNL1        0.0045
     21 C         139.8342  142.1902  170.6885 C.3     1  UNL1        0.0045
     22 C         143.6615  142.1526  169.1836 C.3     1  UNL1        0.2524
     23 O         142.8202  141.3985  168.1970 O.3     1  UNL1       -0.4721
     24 N         139.4497  142.9589  158.2673 N.3     1  UNL1       -0.2974
     25 H         139.3361  143.5403  157.4370 H       1  UNL1        0.1232
     26 C         140.3064  141.7946  157.8666 C.3     1  UNL1        0.0686
     27 C         140.1367  140.4690  158.5478 C.3     1  UNL1        0.0171
     28 C         138.7613  139.9260  158.7999 C.3     1  UNL1        0.0014
     29 C         138.4247  139.3255  160.1326 C.3     1  UNL1        0.0007
     30 C         139.4514  138.5214  160.8738 C.3     1  UNL1        0.0087
     31 C         140.1527  139.1119  162.0609 C.3     1  UNL1        0.0446
     32 C         139.5435  138.9951  163.4267 C.ar    1  UNL1       -0.0183
     33 C         139.0845  140.2257  164.1510 C.ar    1  UNL1       -0.0017
     34 C         138.4752  140.1088  165.5167 C.ar    1  UNL1        0.0293
     35 C         138.3250  138.7613  166.1581 C.ar    1  UNL1        0.1401
     36 F         137.7158  138.6444  167.5238 F       1  UNL1       -0.2042
     37 C         138.7841  137.5306  165.4337 C.ar    1  UNL1        0.0293
     38 C         139.3933  137.6475  164.0681 C.ar    1  UNL1       -0.0017
     39 C         141.4634  139.8194  161.8824 C.ar    1  UNL1       -0.0183
     40 C         141.5043  141.3175  161.8176 C.ar    1  UNL1       -0.0017
     41 C         142.8148  142.0249  161.6391 C.ar    1  UNL1        0.0293
     42 C         144.0845  141.2344  161.5253 C.ar    1  UNL1        0.1401
     43 F         145.3950  141.9419  161.3468 F       1  UNL1       -0.2042
     44 C         144.0436  139.7363  161.5901 C.ar    1  UNL1        0.0293
     45 C         142.7330  139.0289  161.7686 C.ar    1  UNL1       -0.0017
@<TRIPOS>BOND
     1    22    23    1
     2    23     8    1
     3     8     9   ar
     4     9    14    1
     5    14    15    1
     6    14    16    1
     7    14    17    1
     8     9    10   ar
     9    10    11   ar
    10    11     7    1
    11     7     2    1
    12     2     3    1
    13     3     4    1
    14     4     5    1
    15     5     1    1
    16     1    24    1
    17    24    26    1
    18    26    27    1
    19    27    28    1
    20    28    29    1
    21    29    30    1
    22    30    31    1
    23    31    32    1
    24    32    33   ar
    25    33    34   ar
    26    34    35   ar
    27    35    36    1
    28    35    37   ar
    29    37    38   ar
    30    31    39    1
    31    39    40   ar
    32    40    41   ar
    33    41    42   ar
    34    42    43    1
    35    42    44   ar
    36    44    45   ar
    37     5     6    1
    38    11    12   ar
    39    12    13   ar
    40    13    18    1
    41    18    19    1
    42    18    20    1
    43    18    21    1
    44    13     8   ar
    45     6     2    1
    46    38    32   ar
    47    45    39   ar
    48    24    25    1
@<TRIPOS>MOLECULE
*****
 45 48 0 0 0
SMALL
GASTEIGER

@<TRIPOS>ATOM
      1 C         140.3743  145.5038  160.0149 C.3     1  UNL1        0.0700
      2 N         139.8877  144.4899  163.7298 N.3     1  UNL1       -0.2689
      3 C         141.3841  144.5366  163.6357 C.3     1  UNL1        0.0725
      4 C         141.7485  144.9221  162.2326 C.3     1  UNL1        0.0201
      5 C         140.4773  145.1137  161.4595 C.3     1  UNL1        0.0331
      6 C         139.3273  144.8466  162.3848 C.3     1  UNL1        0.0738
      7 C         139.0916  144.1468  164.9539 C.3     1  UNL1        0.0991
      8 C         140.3485  140.7028  167.5633 C.ar    1  UNL1        0.1306
      9 C         139.6716  140.4412  166.2506 C.ar    1  UNL1        0.0106
     10 C         139.2526  141.5891  165.3808 C.ar    1  UNL1       -0.0042
     11 C         139.5105  142.9988  165.8237 C.ar    1  UNL1       -0.0066
     12 C         140.1874  143.2605  167.1364 C.ar    1  UNL1       -0.0042
     13 C         140.6064  142.1125  168.0063 C.ar    1  UNL1        0.0106
     14 C         139.4137  139.0314  165.8076 C.3     1  UNL1        0.0218
     15 C         138.0265  139.1074  166.3733 C.3     1  UNL1        0.0045
     16 C         140.8008  138.9554  165.2420 C.3     1  UNL1        0.0045
     17 C         139.1558  137.6217  165.3646 C.3     1  UNL1        0.0045
     18 C         141.2833  142.3743  169.3191 C.3     1  UNL1        0.0218
     19 C         139.9662  142.2419  170.0245 C.3     1  UNL1        0.0045
     20 C         142.6003  142.5067  168.6136 C.3     1  UNL1        0.0045
     21 C         141.9601  142.6360  170.6318 C.3     1  UNL1        0.0045
     22 C         142.2180  139.1902  168.5465 C.3     1  UNL1        0.2524
     23 O         140.7674  139.5549  168.4332 O.3     1  UNL1       -0.4721
     24 N         141.6151  145.6290  159.1815 N.3     1  UNL1       -0.2974
     25 H         142.3970  145.7232  159.8298 H       1  UNL1        0.1232
     26 C         141.9824  144.5420  158.2152 C.3     1  UNL1        0.0686
     27 C         143.0302  143.5338  158.5834 C.3     1  UNL1        0.0171
     28 C         142.6258  142.2009  159.1402 C.3     1  UNL1        0.0014
     29 C         143.6197  141.0790  159.1970 C.3     1  UNL1        0.0007
     30 C         143.7388  140.2445  160.4377 C.3     1  UNL1        0.0087
     31 C         142.8844  140.5503  161.6321 C.3     1  UNL1        0.0446
     32 C         143.4266  141.3971  162.7451 C.ar    1  UNL1       -0.0183
     33 C         144.3983  142.4994  162.4439 C.ar    1  UNL1       -0.0017
     34 C         144.9405  143.3462  163.5569 C.ar    1  UNL1        0.0293
     35 C         144.5110  143.0908  164.9712 C.ar    1  UNL1        0.1401
     36 F         145.0532  143.9376  166.0842 F       1  UNL1       -0.2042
     37 C         143.5393  141.9885  165.2724 C.ar    1  UNL1        0.0293
     38 C         142.9971  141.1417  164.1594 C.ar    1  UNL1       -0.0017
     39 C         141.4876  140.0092  161.7134 C.ar    1  UNL1       -0.0183
     40 C         140.3287  140.9468  161.8800 C.ar    1  UNL1       -0.0017
     41 C         138.9321  140.4057  161.9613 C.ar    1  UNL1        0.0293
     42 C         138.6944  138.9271  161.8760 C.ar    1  UNL1        0.1401
     43 F         137.2977  138.3861  161.9574 F       1  UNL1       -0.2042
     44 C         139.8534  137.9896  161.7094 C.ar    1  UNL1        0.0293
     45 C         141.2500  138.5306  161.6281 C.ar    1  UNL1       -0.0017
@<TRIPOS>BOND
     1    22    23    1
     2    23     8    1
     3     8     9   ar
     4     9    14    1
     5    14    15    1
     6    14    16    1
     7    14    17    1
     8     9    10   ar
     9    10    11   ar
    10    11     7    1
    11     7     2    1
    12     2     3    1
    13     3     4    1
    14     4     5    1
    15     5     1    1
    16     1    24    1
    17    24    26    1
    18    26    27    1
    19    27    28    1
    20    28    29    1
    21    29    30    1
    22    30    31    1
    23    31    32    1
    24    32    33   ar
    25    33    34   ar
    26    34    35   ar
    27    35    36    1
    28    35    37   ar
    29    37    38   ar
    30    31    39    1
    31    39    40   ar
    32    40    41   ar
    33    41    42   ar
    34    42    43    1
    35    42    44   ar
    36    44    45   ar
    37     5     6    1
    38    11    12   ar
    39    12    13   ar
    40    13    18    1
    41    18    19    1
    42    18    20    1
    43    18    21    1
    44    13     8   ar
    45     6     2    1
    46    38    32   ar
    47    45    39   ar
    48    24    25    1
@<TRIPOS>MOLECULE
*****
 45 48 0 0 0
SMALL
GASTEIGER

@<TRIPOS>ATOM
      1 C         140.5241  145.6728  160.1599 C.3     1  UNL1        0.0700
      2 N         139.8507  144.5204  163.8047 N.3     1  UNL1       -0.2689
      3 C         141.3388  144.7066  163.8298 C.3     1  UNL1        0.0725
      4 C         141.7723  145.1610  162.4675 C.3     1  UNL1        0.0201
      5 C         140.5519  145.2556  161.6004 C.3     1  UNL1        0.0331
      6 C         139.3643  144.8596  162.4268 C.3     1  UNL1        0.0738
      7 C         138.9984  144.0734  164.9552 C.3     1  UNL1        0.0991
      8 C         140.3470  140.6624  167.5623 C.ar    1  UNL1        0.1306
      9 C         139.6390  140.3839  166.2696 C.ar    1  UNL1        0.0106
     10 C         139.1894  141.5209  165.4006 C.ar    1  UNL1       -0.0042
     11 C         139.4480  142.9364  165.8242 C.ar    1  UNL1       -0.0066
     12 C         140.1561  143.2149  167.1169 C.ar    1  UNL1       -0.0042
     13 C         140.6056  142.0779  167.9859 C.ar    1  UNL1        0.0106
     14 C         139.3804  138.9684  165.8459 C.3     1  UNL1        0.0218
     15 C         138.0187  139.0297  166.4719 C.3     1  UNL1        0.0045
     16 C         140.7421  138.9071  165.2198 C.3     1  UNL1        0.0045
     17 C         139.1219  137.5529  165.4222 C.3     1  UNL1        0.0045
     18 C         141.3137  142.3564  169.2786 C.3     1  UNL1        0.0218
     19 C         142.6077  142.5123  168.5362 C.3     1  UNL1        0.0045
     20 C         140.0197  142.2006  170.0211 C.3     1  UNL1        0.0045
     21 C         142.0218  142.6350  170.5713 C.3     1  UNL1        0.0045
     22 C         142.2532  139.1779  168.5177 C.3     1  UNL1        0.2524
     23 O         140.7966  139.5254  168.4313 O.3     1  UNL1       -0.4721
     24 N         141.7637  145.5616  159.3228 N.3     1  UNL1       -0.2974
     25 H         142.5565  145.6810  159.9534 H       1  UNL1        0.1232
     26 C         142.0245  144.3148  158.5306 C.3     1  UNL1        0.0686
     27 C         142.9895  143.2879  159.0445 C.3     1  UNL1        0.0171
     28 C         142.6370  141.8311  158.9845 C.3     1  UNL1        0.0014
     29 C         143.6986  140.7931  159.1980 C.3     1  UNL1        0.0007
     30 C         143.7789  140.0601  160.5043 C.3     1  UNL1        0.0087
     31 C         142.8932  140.4627  161.6459 C.3     1  UNL1        0.0446
     32 C         141.4798  139.9646  161.7105 C.ar    1  UNL1       -0.0183
     33 C         140.3477  140.9375  161.8584 C.ar    1  UNL1       -0.0017
     34 C         138.9343  140.4393  161.9230 C.ar    1  UNL1        0.0293
     35 C         138.6530  138.9683  161.8397 C.ar    1  UNL1        0.1401
     36 F         137.2397  138.4702  161.9043 F       1  UNL1       -0.2042
     37 C         139.7852  137.9955  161.6918 C.ar    1  UNL1        0.0293
     38 C         141.1985  138.4936  161.6272 C.ar    1  UNL1       -0.0017
     39 C         143.4209  141.3636  162.7231 C.ar    1  UNL1       -0.0183
     40 C         143.0236  141.1370  164.1517 C.ar    1  UNL1       -0.0017
     41 C         143.5512  142.0378  165.2287 C.ar    1  UNL1        0.0293
     42 C         144.4762  143.1651  164.8773 C.ar    1  UNL1        0.1401
     43 F         145.0038  144.0659  165.9544 F       1  UNL1       -0.2042
     44 C         144.8735  143.3917  163.4487 C.ar    1  UNL1        0.0293
     45 C         144.3459  142.4909  162.3717 C.ar    1  UNL1       -0.0017
@<TRIPOS>BOND
     1    22    23    1
     2    23     8    1
     3     8     9   ar
     4     9    14    1
     5    14    15    1
     6    14    16    1
     7    14    17    1
     8     9    10   ar
     9    10    11   ar
    10    11     7    1
    11     7     2    1
    12     2     3    1
    13     3     4    1
    14     4     5    1
    15     5     1    1
    16     1    24    1
    17    24    26    1
    18    26    27    1
    19    27    28    1
    20    28    29    1
    21    29    30    1
    22    30    31    1
    23    31    32    1
    24    32    33   ar
    25    33    34   ar
    26    34    35   ar
    27    35    36    1
    28    35    37   ar
    29    37    38   ar
    30    31    39    1
    31    39    40   ar
    32    40    41   ar
    33    41    42   ar
    34    42    43    1
    35    42    44   ar
    36    44    45   ar
    37     5     6    1
    38    11    12   ar
    39    12    13   ar
    40    13    18    1
    41    18    19    1
    42    18    20    1
    43    18    21    1
    44    13     8   ar
    45     6     2    1
    46    38    32   ar
    47    45    39   ar
    48    24    25    1
@<TRIPOS>MOLECULE
*****
 45 48 0 0 0
SMALL
GASTEIGER

@<TRIPOS>ATOM
      1 C         137.9011  139.9990  159.8083 C.3     1  UNL1        0.0700
      2 N         138.4569  138.6682  163.4119 N.3     1  UNL1       -0.2689
      3 C         139.2311  137.6647  162.6097 C.3     1  UNL1        0.0725
      4 C         139.1172  138.0411  161.1621 C.3     1  UNL1        0.0201
      5 C         138.2725  139.2772  161.0696 C.3     1  UNL1        0.0331
      6 C         137.8644  139.6648  162.4600 C.3     1  UNL1        0.0738
      7 C         138.3022  138.6742  164.9038 C.3     1  UNL1        0.0991
      8 C         140.5151  141.7083  167.3833 C.ar    1  UNL1        0.1306
      9 C         140.0430  140.4292  168.0086 C.ar    1  UNL1        0.0106
     10 C         139.3054  139.4179  167.1821 C.ar    1  UNL1       -0.0042
     11 C         139.0398  139.6856  165.7303 C.ar    1  UNL1       -0.0066
     12 C         139.5119  140.9646  165.1050 C.ar    1  UNL1       -0.0042
     13 C         140.2495  141.9760  165.9314 C.ar    1  UNL1        0.0106
     14 C         140.3085  140.1615  169.4605 C.3     1  UNL1        0.0218
     15 C         141.7355  139.8298  169.1384 C.3     1  UNL1        0.0045
     16 C         138.8816  140.4931  169.7825 C.3     1  UNL1        0.0045
     17 C         140.5740  139.8937  170.9123 C.3     1  UNL1        0.0045
     18 C         140.7216  143.2551  165.3060 C.3     1  UNL1        0.0218
     19 C         142.0780  142.6507  165.0939 C.3     1  UNL1        0.0045
     20 C         139.3653  143.8595  165.5182 C.3     1  UNL1        0.0045
     21 C         141.1938  144.5341  164.6807 C.3     1  UNL1        0.0045
     22 C         140.5137  143.5441  169.2217 C.3     1  UNL1        0.2524
     23 O         141.2527  142.7196  168.2097 O.3     1  UNL1       -0.4721
     24 N         138.5970  139.6670  158.5216 N.3     1  UNL1       -0.2974
     25 H         137.8742  139.5982  157.8052 H       1  UNL1        0.1232
     26 C         139.6547  140.5840  157.9828 C.3     1  UNL1        0.0686
     27 C         141.0987  140.1832  158.0476 C.3     1  UNL1        0.0171
     28 C         141.4967  138.9257  158.7619 C.3     1  UNL1        0.0014
     29 C         142.7740  138.8813  159.5472 C.3     1  UNL1        0.0007
     30 C         143.3793  140.1515  160.0670 C.3     1  UNL1        0.0087
     31 C         142.8831  140.7483  161.3506 C.3     1  UNL1        0.0446
     32 C         142.0503  141.9956  161.3252 C.ar    1  UNL1       -0.0183
     33 C         140.5773  141.9196  161.5982 C.ar    1  UNL1       -0.0017
     34 C         139.7444  143.1669  161.5728 C.ar    1  UNL1        0.0293
     35 C         140.3846  144.4902  161.2745 C.ar    1  UNL1        0.1401
     36 F         139.5518  145.7374  161.2491 F       1  UNL1       -0.2042
     37 C         141.8576  144.5661  161.0015 C.ar    1  UNL1        0.0293
     38 C         142.6904  143.3189  161.0269 C.ar    1  UNL1       -0.0017
     39 C         143.2198  140.0978  162.6597 C.ar    1  UNL1       -0.0183
     40 C         142.1836  139.2911  163.3848 C.ar    1  UNL1       -0.0017
     41 C         142.5203  138.6407  164.6937 C.ar    1  UNL1        0.0293
     42 C         143.8931  138.7968  165.2777 C.ar    1  UNL1        0.1401
     43 F         144.2297  138.1463  166.5867 F       1  UNL1       -0.2042
     44 C         144.9292  139.6035  164.5526 C.ar    1  UNL1        0.0293
     45 C         144.5926  140.2539  163.2437 C.ar    1  UNL1       -0.0017
@<TRIPOS>BOND
     1    22    23    1
     2    23     8    1
     3     8     9   ar
     4     9    14    1
     5    14    15    1
     6    14    16    1
     7    14    17    1
     8     9    10   ar
     9    10    11   ar
    10    11     7    1
    11     7     2    1
    12     2     3    1
    13     3     4    1
    14     4     5    1
    15     5     1    1
    16     1    24    1
    17    24    26    1
    18    26    27    1
    19    27    28    1
    20    28    29    1
    21    29    30    1
    22    30    31    1
    23    31    32    1
    24    32    33   ar
    25    33    34   ar
    26    34    35   ar
    27    35    36    1
    28    35    37   ar
    29    37    38   ar
    30    31    39    1
    31    39    40   ar
    32    40    41   ar
    33    41    42   ar
    34    42    43    1
    35    42    44   ar
    36    44    45   ar
    37     5     6    1
    38    11    12   ar
    39    12    13   ar
    40    13    18    1
    41    18    19    1
    42    18    20    1
    43    18    21    1
    44    13     8   ar
    45     6     2    1
    46    38    32   ar
    47    45    39   ar
    48    24    25    1
@<TRIPOS>MOLECULE
*****
 45 48 0 0 0
SMALL
GASTEIGER

@<TRIPOS>ATOM
      1 C         139.5985  143.6299  159.1003 C.3     1  UNL1        0.0700
      2 N         139.4900  144.5815  162.8616 N.3     1  UNL1       -0.2689
      3 C         140.2494  145.7423  162.2908 C.3     1  UNL1        0.0725
      4 C         140.3825  145.5271  160.8122 C.3     1  UNL1        0.0201
      5 C         139.7053  144.2333  160.4693 C.3     1  UNL1        0.0331
      6 C         139.1537  143.6489  161.7358 C.3     1  UNL1        0.0738
      7 C         139.1300  144.3874  164.3048 C.3     1  UNL1        0.0991
      8 C         141.9313  142.1747  167.0446 C.ar    1  UNL1        0.1306
      9 C         140.5843  142.6096  167.5411 C.ar    1  UNL1        0.0106
     10 C         139.6506  143.3471  166.6278 C.ar    1  UNL1       -0.0042
     11 C         140.0638  143.6499  165.2180 C.ar    1  UNL1       -0.0066
     12 C         141.4107  143.2150  164.7215 C.ar    1  UNL1       -0.0042
     13 C         142.3445  142.4774  165.6348 C.ar    1  UNL1        0.0106
     14 C         140.1711  142.3069  168.9510 C.3     1  UNL1        0.0218
     15 C         140.4222  143.7359  169.3315 C.3     1  UNL1        0.0045
     16 C         139.9200  140.8778  168.5705 C.3     1  UNL1        0.0045
     17 C         139.7579  142.0041  170.3608 C.3     1  UNL1        0.0045
     18 C         143.6915  142.0426  165.1382 C.3     1  UNL1        0.0218
     19 C         143.1621  140.6569  164.9156 C.3     1  UNL1        0.0045
     20 C         144.2209  143.4283  165.3607 C.3     1  UNL1        0.0045
     21 C         145.0384  141.6077  164.6416 C.3     1  UNL1        0.0045
     22 C         143.6402  142.1854  169.0015 C.3     1  UNL1        0.2524
     23 O         142.8651  141.4372  167.9579 O.3     1  UNL1       -0.4721
     24 N         140.8391  143.2288  158.3585 N.3     1  UNL1       -0.2974
     25 H         141.5615  143.0652  159.0598 H       1  UNL1        0.1232
     26 C         140.8222  142.0241  157.4650 C.3     1  UNL1        0.0686
     27 C         140.7554  140.6492  158.0608 C.3     1  UNL1        0.0171
     28 C         139.4292  139.9692  158.2311 C.3     1  UNL1        0.0014
     29 C         138.8359  139.8146  159.6000 C.3     1  UNL1        0.0007
     30 C         139.4355  138.8420  160.5719 C.3     1  UNL1        0.0087
     31 C         140.1587  139.3446  161.7862 C.3     1  UNL1        0.0446
     32 C         139.5470  139.1783  163.1457 C.ar    1  UNL1       -0.0183
     33 C         138.9350  140.3575  163.8421 C.ar    1  UNL1       -0.0017
     34 C         138.3234  140.1912  165.2017 C.ar    1  UNL1        0.0293
     35 C         138.3238  138.8457  165.8648 C.ar    1  UNL1        0.1401
     36 F         137.7123  138.6795  167.2243 F       1  UNL1       -0.2042
     37 C         138.9359  137.6666  165.1683 C.ar    1  UNL1        0.0293
     38 C         139.5475  137.8329  163.8089 C.ar    1  UNL1       -0.0017
     39 C         141.4935  140.0135  161.6410 C.ar    1  UNL1       -0.0183
     40 C         142.7413  139.1858  161.5512 C.ar    1  UNL1       -0.0017
     41 C         144.0760  139.8546  161.4060 C.ar    1  UNL1        0.0293
     42 C         144.1629  141.3511  161.3506 C.ar    1  UNL1        0.1401
     43 F         145.4977  142.0199  161.2054 F       1  UNL1       -0.2042
     44 C         142.9151  142.1787  161.4404 C.ar    1  UNL1        0.0293
     45 C         141.5805  141.5099  161.5856 C.ar    1  UNL1       -0.0017
@<TRIPOS>BOND
     1    22    23    1
     2    23     8    1
     3     8     9   ar
     4     9    14    1
     5    14    15    1
     6    14    16    1
     7    14    17    1
     8     9    10   ar
     9    10    11   ar
    10    11     7    1
    11     7     2    1
    12     2     3    1
    13     3     4    1
    14     4     5    1
    15     5     1    1
    16     1    24    1
    17    24    26    1
    18    26    27    1
    19    27    28    1
    20    28    29    1
    21    29    30    1
    22    30    31    1
    23    31    32    1
    24    32    33   ar
    25    33    34   ar
    26    34    35   ar
    27    35    36    1
    28    35    37   ar
    29    37    38   ar
    30    31    39    1
    31    39    40   ar
    32    40    41   ar
    33    41    42   ar
    34    42    43    1
    35    42    44   ar
    36    44    45   ar
    37     5     6    1
    38    11    12   ar
    39    12    13   ar
    40    13    18    1
    41    18    19    1
    42    18    20    1
    43    18    21    1
    44    13     8   ar
    45     6     2    1
    46    38    32   ar
    47    45    39   ar
    48    24    25    1
@<TRIPOS>MOLECULE
*****
 45 48 0 0 0
SMALL
GASTEIGER

@<TRIPOS>ATOM
      1 C         139.7988  144.0971  159.0437 C.3     1  UNL1        0.0700
      2 N         139.4621  144.5942  162.8784 N.3     1  UNL1       -0.2689
      3 C         140.1973  145.8420  162.4878 C.3     1  UNL1        0.0725
      4 C         140.4129  145.8077  161.0037 C.3     1  UNL1        0.0201
      5 C         139.8110  144.5386  160.4771 C.3     1  UNL1        0.0331
      6 C         139.2234  143.7887  161.6357 C.3     1  UNL1        0.0738
      7 C         139.0399  144.2179  164.2677 C.3     1  UNL1        0.0991
      8 C         141.9366  142.1419  167.0152 C.ar    1  UNL1        0.1306
      9 C         142.3282  142.4383  165.5979 C.ar    1  UNL1        0.0106
     10 C         141.3626  143.1303  164.6821 C.ar    1  UNL1       -0.0042
     11 C         140.0054  143.5259  165.1835 C.ar    1  UNL1       -0.0066
     12 C         139.6139  143.2296  166.6008 C.ar    1  UNL1       -0.0042
     13 C         140.5794  142.5376  167.5167 C.ar    1  UNL1        0.0106
     14 C         143.6854  142.0426  165.0964 C.3     1  UNL1        0.0218
     15 C         143.2053  140.6341  164.9079 C.3     1  UNL1        0.0045
     16 C         144.1656  143.4511  165.2849 C.3     1  UNL1        0.0045
     17 C         145.0426  141.6470  164.5949 C.3     1  UNL1        0.0045
     18 C         140.1878  142.2412  168.9340 C.3     1  UNL1        0.0218
     19 C         140.4230  143.6769  169.2992 C.3     1  UNL1        0.0045
     20 C         139.9525  140.8055  168.5689 C.3     1  UNL1        0.0045
     21 C         139.7961  141.9449  170.3513 C.3     1  UNL1        0.0045
     22 C         143.7093  142.2481  168.9116 C.3     1  UNL1        0.2524
     23 O         142.9022  141.4499  167.9311 O.3     1  UNL1       -0.4721
     24 N         139.8060  142.6350  158.7092 N.3     1  UNL1       -0.2974
     25 H         140.3354  142.1672  159.4449 H       1  UNL1        0.1232
     26 C         138.5108  141.8915  158.5682 C.3     1  UNL1        0.0686
     27 C         138.4283  140.4470  158.9641 C.3     1  UNL1        0.0171
     28 C         139.4797  139.4817  158.5029 C.3     1  UNL1        0.0014
     29 C         139.9383  138.3810  159.4130 C.3     1  UNL1        0.0007
     30 C         139.3709  138.2667  160.7968 C.3     1  UNL1        0.0087
     31 C         140.0496  138.9534  161.9448 C.3     1  UNL1        0.0446
     32 C         141.3450  139.6772  161.7259 C.ar    1  UNL1       -0.0183
     33 C         142.6326  138.9099  161.6690 C.ar    1  UNL1       -0.0017
     34 C         143.9280  139.6338  161.4501 C.ar    1  UNL1        0.0293
     35 C         143.9359  141.1250  161.2882 C.ar    1  UNL1        0.1401
     36 F         145.2312  141.8488  161.0694 F       1  UNL1       -0.2042
     37 C         142.6482  141.8923  161.3452 C.ar    1  UNL1        0.0293
     38 C         141.3528  141.1685  161.5641 C.ar    1  UNL1       -0.0017
     39 C         139.4328  138.9162  163.3117 C.ar    1  UNL1       -0.0183
     40 C         138.7802  140.1443  163.8737 C.ar    1  UNL1       -0.0017
     41 C         138.1635  140.1071  165.2405 C.ar    1  UNL1        0.0293
     42 C         138.1994  138.8418  166.0453 C.ar    1  UNL1        0.1401
     43 F         137.5826  138.8047  167.4122 F       1  UNL1       -0.2042
     44 C         138.8520  137.6137  165.4833 C.ar    1  UNL1        0.0293
     45 C         139.4686  137.6509  164.1165 C.ar    1  UNL1       -0.0017
@<TRIPOS>BOND
     1    22    23    1
     2    23     8    1
     3     8     9   ar
     4     9    14    1
     5    14    15    1
     6    14    16    1
     7    14    17    1
     8     9    10   ar
     9    10    11   ar
    10    11     7    1
    11     7     2    1
    12     2     3    1
    13     3     4    1
    14     4     5    1
    15     5     1    1
    16     1    24    1
    17    24    26    1
    18    26    27    1
    19    27    28    1
    20    28    29    1
    21    29    30    1
    22    30    31    1
    23    31    32    1
    24    32    33   ar
    25    33    34   ar
    26    34    35   ar
    27    35    36    1
    28    35    37   ar
    29    37    38   ar
    30    31    39    1
    31    39    40   ar
    32    40    41   ar
    33    41    42   ar
    34    42    43    1
    35    42    44   ar
    36    44    45   ar
    37     5     6    1
    38    11    12   ar
    39    12    13   ar
    40    13    18    1
    41    18    19    1
    42    18    20    1
    43    18    21    1
    44    13     8   ar
    45     6     2    1
    46    38    32   ar
    47    45    39   ar
    48    24    25    1
@<TRIPOS>MOLECULE
*****
 45 48 0 0 0
SMALL
GASTEIGER

@<TRIPOS>ATOM
      1 C         139.5840  143.6094  159.2215 C.3     1  UNL1        0.0700
      2 N         139.4786  144.5950  162.9742 N.3     1  UNL1       -0.2689
      3 C         140.2295  145.7552  162.3908 C.3     1  UNL1        0.0725
      4 C         140.3603  145.5272  160.9139 C.3     1  UNL1        0.0201
      5 C         139.6903  144.2261  160.5847 C.3     1  UNL1        0.0331
      6 C         139.1454  143.6500  161.8579 C.3     1  UNL1        0.0738
      7 C         139.1234  144.4120  164.4200 C.3     1  UNL1        0.0991
      8 C         141.8984  142.1554  167.1507 C.ar    1  UNL1        0.1306
      9 C         140.5770  142.6462  167.6632 C.ar    1  UNL1        0.0106
     10 C         139.6519  143.3984  166.7530 C.ar    1  UNL1       -0.0042
     11 C         140.0484  143.6598  165.3302 C.ar    1  UNL1       -0.0066
     12 C         141.3699  143.1690  164.8176 C.ar    1  UNL1       -0.0042
     13 C         142.2949  142.4168  165.7278 C.ar    1  UNL1        0.0106
     14 C         140.1805  142.3848  169.0861 C.3     1  UNL1        0.0218
     15 C         139.8328  140.9700  168.7294 C.3     1  UNL1        0.0045
     16 C         140.5281  143.7996  169.4429 C.3     1  UNL1        0.0045
     17 C         139.7840  142.1235  170.5090 C.3     1  UNL1        0.0045
     18 C         143.6164  141.9260  165.2152 C.3     1  UNL1        0.0218
     19 C         143.0395  140.5521  165.0436 C.3     1  UNL1        0.0045
     20 C         144.1933  143.2999  165.3868 C.3     1  UNL1        0.0045
     21 C         144.9379  141.4352  164.7026 C.3     1  UNL1        0.0045
     22 C         143.6506  142.1446  169.0689 C.3     1  UNL1        0.2524
     23 O         142.8235  141.4032  168.0609 O.3     1  UNL1       -0.4721
     24 N         140.3070  142.3307  158.9183 N.3     1  UNL1       -0.2974
     25 H         140.3006  141.7783  159.7758 H       1  UNL1        0.1232
     26 C         139.8158  141.4332  157.8214 C.3     1  UNL1        0.0686
     27 C         140.4621  140.0981  157.5987 C.3     1  UNL1        0.0171
     28 C         139.9503  138.8872  158.3213 C.3     1  UNL1        0.0014
     29 C         139.1745  139.0462  159.5952 C.3     1  UNL1        0.0007
     30 C         139.5790  138.2807  160.8201 C.3     1  UNL1        0.0087
     31 C         140.2116  138.9962  161.9768 C.3     1  UNL1        0.0446
     32 C         141.4938  139.7500  161.7819 C.ar    1  UNL1       -0.0183
     33 C         141.4878  141.2499  161.7714 C.ar    1  UNL1       -0.0017
     34 C         142.7700  142.0036  161.5766 C.ar    1  UNL1        0.0293
     35 C         144.0581  141.2575  161.3922 C.ar    1  UNL1        0.1401
     36 F         145.3402  142.0112  161.1974 F       1  UNL1       -0.2042
     37 C         144.0640  139.7575  161.4027 C.ar    1  UNL1        0.0293
     38 C         142.7819  139.0038  161.5975 C.ar    1  UNL1       -0.0017
     39 C         139.5621  138.9580  163.3284 C.ar    1  UNL1       -0.0183
     40 C         139.4233  137.6542  164.0572 C.ar    1  UNL1       -0.0017
     41 C         138.7738  137.6160  165.4086 C.ar    1  UNL1        0.0293
     42 C         138.2630  138.8815  166.0314 C.ar    1  UNL1        0.1401
     43 F         137.6135  138.8432  167.3829 F       1  UNL1       -0.2042
     44 C         138.4018  140.1852  165.3026 C.ar    1  UNL1        0.0293
     45 C         139.0513  140.2234  163.9511 C.ar    1  UNL1       -0.0017
@<TRIPOS>BOND
     1    22    23    1
     2    23     8    1
     3     8     9   ar
     4     9    14    1
     5    14    15    1
     6    14    16    1
     7    14    17    1
     8     9    10   ar
     9    10    11   ar
    10    11     7    1
    11     7     2    1
    12     2     3    1
    13     3     4    1
    14     4     5    1
    15     5     1    1
    16     1    24    1
    17    24    26    1
    18    26    27    1
    19    27    28    1
    20    28    29    1
    21    29    30    1
    22    30    31    1
    23    31    32    1
    24    32    33   ar
    25    33    34   ar
    26    34    35   ar
    27    35    36    1
    28    35    37   ar
    29    37    38   ar
    30    31    39    1
    31    39    40   ar
    32    40    41   ar
    33    41    42   ar
    34    42    43    1
    35    42    44   ar
    36    44    45   ar
    37     5     6    1
    38    11    12   ar
    39    12    13   ar
    40    13    18    1
    41    18    19    1
    42    18    20    1
    43    18    21    1
    44    13     8   ar
    45     6     2    1
    46    38    32   ar
    47    45    39   ar
    48    24    25    1
@<TRIPOS>MOLECULE
*****
 45 48 0 0 0
SMALL
GASTEIGER

@<TRIPOS>ATOM
      1 C         141.5922  144.5889  159.6550 C.3     1  UNL1        0.0700
      2 N         142.9356  144.0142  163.2509 N.3     1  UNL1       -0.2689
      3 C         141.7907  144.9467  163.5148 C.3     1  UNL1        0.0725
      4 C         141.1480  145.2755  162.1999 C.3     1  UNL1        0.0201
      5 C         141.8958  144.5462  161.1233 C.3     1  UNL1        0.0331
      6 C         143.0006  143.7667  161.7728 C.3     1  UNL1        0.0738
      7 C         143.8542  143.4316  164.2837 C.3     1  UNL1        0.0991
      8 C         142.2384  140.6175  167.4013 C.ar    1  UNL1        0.1306
      9 C         142.5458  142.0405  167.7626 C.ar    1  UNL1        0.0106
     10 C         143.0844  142.9785  166.7233 C.ar    1  UNL1       -0.0042
     11 C         143.3156  142.4936  165.3229 C.ar    1  UNL1       -0.0066
     12 C         143.0083  141.0705  164.9617 C.ar    1  UNL1       -0.0042
     13 C         142.4696  140.1325  166.0009 C.ar    1  UNL1        0.0106
     14 C         142.3145  142.5256  169.1631 C.3     1  UNL1        0.0218
     15 C         140.8694  142.7664  168.8411 C.3     1  UNL1        0.0045
     16 C         143.7596  142.2847  169.4850 C.3     1  UNL1        0.0045
     17 C         142.0833  143.0106  170.5635 C.3     1  UNL1        0.0045
     18 C         142.1623  138.7094  165.6396 C.3     1  UNL1        0.0218
     19 C         143.6224  138.3747  165.7161 C.3     1  UNL1        0.0045
     20 C         140.7021  139.0442  165.5632 C.3     1  UNL1        0.0045
     21 C         141.8550  137.2864  165.2784 C.3     1  UNL1        0.0045
     22 C         142.6400  138.9641  169.3647 C.3     1  UNL1        0.2524
     23 O         141.6998  139.6795  168.4406 O.3     1  UNL1       -0.4721
     24 N         141.2978  143.3191  158.9128 N.3     1  UNL1       -0.2974
     25 H         141.4841  142.5511  159.5577 H       1  UNL1        0.1232
     26 C         139.9307  143.0835  158.3423 C.3     1  UNL1        0.0686
     27 C         138.9011  142.3430  159.1433 C.3     1  UNL1        0.0171
     28 C         138.5101  140.9478  158.7554 C.3     1  UNL1        0.0014
     29 C         137.8675  140.0414  159.7631 C.3     1  UNL1        0.0007
     30 C         137.6471  140.5185  161.1681 C.3     1  UNL1        0.0087
     31 C         138.8216  140.8446  162.0423 C.3     1  UNL1        0.0446
     32 C         140.0791  140.0330  161.9424 C.ar    1  UNL1       -0.0183
     33 C         140.0269  138.5442  162.1175 C.ar    1  UNL1       -0.0017
     34 C         141.2845  137.7327  162.0176 C.ar    1  UNL1        0.0293
     35 C         142.5943  138.4100  161.7426 C.ar    1  UNL1        0.1401
     36 F         143.8518  137.5985  161.6428 F       1  UNL1       -0.2042
     37 C         142.6465  139.8988  161.5676 C.ar    1  UNL1        0.0293
     38 C         141.3890  140.7103  161.6675 C.ar    1  UNL1       -0.0017
     39 C         138.7385  141.9822  163.0165 C.ar    1  UNL1       -0.0183
     40 C         137.9266  143.1983  162.6819 C.ar    1  UNL1       -0.0017
     41 C         137.8435  144.3359  163.6560 C.ar    1  UNL1        0.0293
     42 C         138.5723  144.2574  164.9647 C.ar    1  UNL1        0.1401
     43 F         138.4892  145.3950  165.9388 F       1  UNL1       -0.2042
     44 C         139.3843  143.0413  165.2993 C.ar    1  UNL1        0.0293
     45 C         139.4673  141.9038  164.3252 C.ar    1  UNL1       -0.0017
@<TRIPOS>BOND
     1    22    23    1
     2    23     8    1
     3     8     9   ar
     4     9    14    1
     5    14    15    1
     6    14    16    1
     7    14    17    1
     8     9    10   ar
     9    10    11   ar
    10    11     7    1
    11     7     2    1
    12     2     3    1
    13     3     4    1
    14     4     5    1
    15     5     1    1
    16     1    24    1
    17    24    26    1
    18    26    27    1
    19    27    28    1
    20    28    29    1
    21    29    30    1
    22    30    31    1
    23    31    32    1
    24    32    33   ar
    25    33    34   ar
    26    34    35   ar
    27    35    36    1
    28    35    37   ar
    29    37    38   ar
    30    31    39    1
    31    39    40   ar
    32    40    41   ar
    33    41    42   ar
    34    42    43    1
    35    42    44   ar
    36    44    45   ar
    37     5     6    1
    38    11    12   ar
    39    12    13   ar
    40    13    18    1
    41    18    19    1
    42    18    20    1
    43    18    21    1
    44    13     8   ar
    45     6     2    1
    46    38    32   ar
    47    45    39   ar
    48    24    25    1
@<TRIPOS>MOLECULE
*****
 45 48 0 0 0
SMALL
GASTEIGER

@<TRIPOS>ATOM
      1 C         137.5346  139.9702  160.3853 C.3     1  UNL1        0.0700
      2 N         138.2493  139.0590  164.0900 N.3     1  UNL1       -0.2689
      3 C         138.7764  137.8439  163.3857 C.3     1  UNL1        0.0725
      4 C         138.5728  138.0374  161.9122 C.3     1  UNL1        0.0201
      5 C         137.9199  139.3720  161.7058 C.3     1  UNL1        0.0331
      6 C         137.7200  140.0034  163.0516 C.3     1  UNL1        0.0738
      7 C         138.2512  139.2892  165.5721 C.3     1  UNL1        0.0991
      8 C         142.0166  140.6370  167.6349 C.ar    1  UNL1        0.1306
      9 C         142.0119  140.4170  166.1512 C.ar    1  UNL1        0.0106
     10 C         140.7568  139.9677  165.4636 C.ar    1  UNL1       -0.0042
     11 C         139.5064  139.7385  166.2597 C.ar    1  UNL1       -0.0066
     12 C         139.5111  139.9585  167.7435 C.ar    1  UNL1       -0.0042
     13 C         140.7662  140.4078  168.4311 C.ar    1  UNL1        0.0106
     14 C         143.2624  140.6462  165.3549 C.3     1  UNL1        0.0218
     15 C         143.5965  139.1877  165.4597 C.3     1  UNL1        0.0045
     16 C         142.9282  142.1048  165.2502 C.3     1  UNL1        0.0045
     17 C         144.5127  140.8755  164.5588 C.3     1  UNL1        0.0045
     18 C         140.7709  140.6278  169.9149 C.3     1  UNL1        0.0218
     19 C         141.5546  139.3623  170.1000 C.3     1  UNL1        0.0045
     20 C         139.9873  141.8934  169.7297 C.3     1  UNL1        0.0045
     21 C         140.7756  140.8478  171.3986 C.3     1  UNL1        0.0045
     22 C         143.3643  142.4747  168.8826 C.3     1  UNL1        0.2524
     23 O         143.2718  141.0863  168.3225 O.3     1  UNL1       -0.4721
     24 N         138.3965  139.7430  159.1789 N.3     1  UNL1       -0.2974
     25 H         137.7810  139.7789  158.3664 H       1  UNL1        0.1232
     26 C         139.5449  140.6648  158.8933 C.3     1  UNL1        0.0686
     27 C         139.3591  141.8296  157.9666 C.3     1  UNL1        0.0171
     28 C         139.7078  143.2150  158.4239 C.3     1  UNL1        0.0014
     29 C         141.1364  143.5739  158.7071 C.3     1  UNL1        0.0007
     30 C         141.5479  143.9782  160.0917 C.3     1  UNL1        0.0087
     31 C         141.2665  143.0711  161.2527 C.3     1  UNL1        0.0446
     32 C         142.0019  141.7702  161.3835 C.ar    1  UNL1       -0.0183
     33 C         141.3171  140.5787  161.9847 C.ar    1  UNL1       -0.0017
     34 C         142.0525  139.2779  162.1155 C.ar    1  UNL1        0.0293
     35 C         143.4726  139.1685  161.6450 C.ar    1  UNL1        0.1401
     36 F         144.2079  137.8678  161.7758 F       1  UNL1       -0.2042
     37 C         144.1573  140.3601  161.0438 C.ar    1  UNL1        0.0293
     38 C         143.4220  141.6608  160.9130 C.ar    1  UNL1       -0.0017
     39 C         140.2497  143.4647  162.2829 C.ar    1  UNL1       -0.0183
     40 C         138.7863  143.3605  161.9705 C.ar    1  UNL1       -0.0017
     41 C         137.7696  143.7541  163.0007 C.ar    1  UNL1        0.0293
     42 C         138.2163  144.2519  164.3433 C.ar    1  UNL1        0.1401
     43 F         137.1995  144.6455  165.3735 F       1  UNL1       -0.2042
     44 C         139.6797  144.3561  164.6557 C.ar    1  UNL1        0.0293
     45 C         140.6964  143.9625  163.6256 C.ar    1  UNL1       -0.0017
@<TRIPOS>BOND
     1    22    23    1
     2    23     8    1
     3     8     9   ar
     4     9    14    1
     5    14    15    1
     6    14    16    1
     7    14    17    1
     8     9    10   ar
     9    10    11   ar
    10    11     7    1
    11     7     2    1
    12     2     3    1
    13     3     4    1
    14     4     5    1
    15     5     1    1
    16     1    24    1
    17    24    26    1
    18    26    27    1
    19    27    28    1
    20    28    29    1
    21    29    30    1
    22    30    31    1
    23    31    32    1
    24    32    33   ar
    25    33    34   ar
    26    34    35   ar
    27    35    36    1
    28    35    37   ar
    29    37    38   ar
    30    31    39    1
    31    39    40   ar
    32    40    41   ar
    33    41    42   ar
    34    42    43    1
    35    42    44   ar
    36    44    45   ar
    37     5     6    1
    38    11    12   ar
    39    12    13   ar
    40    13    18    1
    41    18    19    1
    42    18    20    1
    43    18    21    1
    44    13     8   ar
    45     6     2    1
    46    38    32   ar
    47    45    39   ar
    48    24    25    1
