@<TRIPOS>MOLECULE
*****
 44 49 0 0 0
SMALL
GASTEIGER

@<TRIPOS>ATOM
      1 N         138.9218  142.2804  158.4753 N.am    1  UNL1       -0.2222
      2 C         138.9420  141.6999  159.8583 C.2     1  UNL1        0.3219
      3 O         138.4281  140.3475  160.2545 O.2     1  UNL1       -0.2512
      4 N         139.5664  142.7093  160.7756 N.am    1  UNL1       -0.1907
      5 C         139.9321  143.9135  159.9596 C.2     1  UNL1        0.2529
      6 O         140.5820  145.1634  160.4746 O.2     1  UNL1       -0.2724
      7 C         139.5337  143.6485  158.5378 C.3     1  UNL1        0.1391
      8 C         139.0838  143.2435  157.1654 C.3     1  UNL1        0.0449
      9 C         139.2655  144.1818  156.0094 C.3     1  UNL1        0.0746
     10 N         139.8970  145.5251  156.2257 N.3     1  UNL1       -0.2676
     11 C         140.3469  145.9301  157.5981 C.3     1  UNL1        0.0746
     12 C         140.1652  144.9918  158.7542 C.3     1  UNL1        0.0449
     13 C         136.3984  141.0881  155.6538 C.ar    1  UNL1        0.2293
     14 C         136.9361  141.7581  156.8835 C.ar    1  UNL1        0.0924
     15 C         138.3842  141.6104  157.2456 C.ar    1  UNL1        0.1453
     16 N         139.2946  140.7927  156.3782 N.ar    1  UNL1       -0.2084
     17 C         138.7570  140.1227  155.1486 C.ar    1  UNL1        0.2027
     18 N         137.3088  140.2704  154.7864 N.ar    1  UNL1       -0.1892
     19 C         133.9041  140.4884  156.0641 C.3     1  UNL1        0.2542
     20 O         134.9503  141.2358  155.2916 O.3     1  UNL1       -0.4560
     21 C         139.7864  142.5435  162.2500 C.ar    1  UNL1        0.0622
     22 C         141.1267  142.1084  162.7641 C.ar    1  UNL1        0.0154
     23 C         141.3467  141.9426  164.2386 C.ar    1  UNL1        0.0013
     24 C         140.2264  142.2118  165.1990 C.ar    1  UNL1        0.0001
     25 C         138.8860  142.6469  164.6850 C.ar    1  UNL1        0.0013
     26 C         138.6661  142.8127  163.2105 C.ar    1  UNL1        0.0154
     27 C         140.4465  142.0460  166.6735 C.ar    1  UNL1       -0.0003
     28 C         140.8536  140.7121  167.2257 C.ar    1  UNL1        0.0000
     29 C         141.0737  140.5463  168.7002 C.ar    1  UNL1        0.0008
     30 C         140.8865  141.7145  169.6224 C.ar    1  UNL1        0.0100
     31 C         140.4793  143.0483  169.0702 C.ar    1  UNL1       -0.0207
     32 C         140.2922  144.2164  169.9925 C.3     1  UNL1        0.0311
     33 C         140.2593  143.2142  167.5958 C.ar    1  UNL1       -0.0042
     34 C         141.1065  141.5487  171.0969 C.2     1  UNL1        0.0726
     35 O         140.2780  140.5685  171.8733 O.co2   1  UNL1       -0.5446
     36 O         142.1551  142.3631  171.7950 O.co2   1  UNL1       -0.5446
     37 C         140.0787  146.4634  155.0695 C.3     1  UNL1        0.1183
     38 C         139.5995  147.8811  155.1717 C.ar    1  UNL1        0.0712
     39 N         138.7764  148.3115  156.3496 N.ar    1  UNL1       -0.2471
     40 C         138.2972  149.7293  156.4517 C.ar    1  UNL1        0.0985
     41 C         138.6411  150.7166  155.3761 C.ar    1  UNL1        0.0203
     42 C         139.4642  150.2862  154.1983 C.ar    1  UNL1       -0.0015
     43 C         139.9434  148.8685  154.0961 C.ar    1  UNL1       -0.0069
     44 C         140.7664  148.4380  152.9183 C.3     1  UNL1        0.0323
@<TRIPOS>UNITY_ATOM_ATTR
35 1
charge -1
@<TRIPOS>BOND
     1    19    20    1
     2    20    13    1
     3    13    14   ar
     4    14    15   ar
     5    15     1    1
     6     1     2   am
     7     2     3    2
     8     2     4   am
     9     4    21    1
    10    21    22   ar
    11    22    23   ar
    12    23    24   ar
    13    24    27    1
    14    27    28   ar
    15    28    29   ar
    16    29    30   ar
    17    30    34    1
    18    34    35   ar
    19    34    36   ar
    20    30    31   ar
    21    31    32    1
    22    31    33   ar
    23    24    25   ar
    24    25    26   ar
    25     4     5   am
    26     5     6    2
    27     5     7    1
    28     7     8    1
    29     8     9    1
    30     9    10    1
    31    10    37    1
    32    37    38    1
    33    38    39   ar
    34    39    40   ar
    35    40    41   ar
    36    41    42   ar
    37    42    43   ar
    38    43    44    1
    39    10    11    1
    40    11    12    1
    41    15    16   ar
    42    16    17   ar
    43    17    18   ar
    44    18    13   ar
    45     7     1    1
    46    43    38   ar
    47    26    21   ar
    48    12     7    1
    49    33    27   ar
@<TRIPOS>MOLECULE
*****
 44 49 0 0 0
SMALL
GASTEIGER

@<TRIPOS>ATOM
      1 N         143.6439  140.9511  158.5290 N.am    1  UNL1       -0.2222
      2 C         143.5206  141.5443  159.9013 C.2     1  UNL1        0.3219
      3 O         143.7775  142.9755  160.2695 O.2     1  UNL1       -0.2512
      4 N         143.0953  140.4548  160.8406 N.am    1  UNL1       -0.1907
      5 C         142.9557  139.1885  160.0489 C.2     1  UNL1        0.2529
      6 O         142.5486  137.8503  160.5906 O.2     1  UNL1       -0.2724
      7 C         143.2948  139.4952  158.6202 C.3     1  UNL1        0.1391
      8 C         143.6589  139.9498  157.2380 C.3     1  UNL1        0.0449
      9 C         143.6503  138.9722  156.1003 C.3     1  UNL1        0.0746
     10 N         143.2777  137.5400  156.3450 N.3     1  UNL1       -0.2676
     11 C         142.9137  137.0853  157.7273 C.3     1  UNL1        0.0746
     12 C         142.9222  138.0629  158.8649 C.3     1  UNL1        0.0449
     13 C         145.9001  142.6003  155.7112 C.ar    1  UNL1        0.2293
     14 C         145.4982  141.8663  156.9561 C.ar    1  UNL1        0.0924
     15 C         144.0458  141.6851  157.2841 C.ar    1  UNL1        0.1453
     16 N         142.9952  142.2379  156.3672 N.ar    1  UNL1       -0.2084
     17 C         143.3970  142.9719  155.1223 C.ar    1  UNL1        0.2027
     18 N         144.8495  143.1531  154.7943 N.ar    1  UNL1       -0.1892
     19 C         148.3356  141.6960  155.7074 C.3     1  UNL1        0.2542
     20 O         147.3525  142.7815  155.3832 O.3     1  UNL1       -0.4560
     21 C         142.8522  140.6054  162.3130 C.ar    1  UNL1        0.0622
     22 C         141.5650  141.1987  162.8039 C.ar    1  UNL1        0.0154
     23 C         141.3219  141.3493  164.2764 C.ar    1  UNL1        0.0013
     24 C         142.3661  140.9064  165.2581 C.ar    1  UNL1        0.0001
     25 C         143.6534  140.3130  164.7672 C.ar    1  UNL1        0.0013
     26 C         143.8964  140.1625  163.2947 C.ar    1  UNL1        0.0154
     27 C         142.1230  141.0570  166.7306 C.ar    1  UNL1       -0.0003
     28 C         142.6414  140.0233  167.6859 C.ar    1  UNL1        0.0000
     29 C         142.3984  140.1738  169.1584 C.ar    1  UNL1        0.0008
     30 C         141.6368  141.3581  169.6755 C.ar    1  UNL1        0.0100
     31 C         141.1183  142.3919  168.7202 C.ar    1  UNL1       -0.0207
     32 C         140.3568  143.5761  169.2375 C.3     1  UNL1        0.0311
     33 C         141.3614  142.2413  167.2478 C.ar    1  UNL1       -0.0042
     34 C         141.3937  141.5087  171.1480 C.2     1  UNL1        0.0726
     35 O         140.3660  140.6548  171.8297 O.co2   1  UNL1       -0.5446
     36 O         142.1784  142.5132  171.9389 O.co2   1  UNL1       -0.5446
     37 C         143.2692  136.5624  155.2073 C.3     1  UNL1        0.1183
     38 C         142.9591  135.1172  155.4626 C.ar    1  UNL1        0.0712
     39 N         143.9799  134.2357  156.1190 N.ar    1  UNL1       -0.2471
     40 C         143.6697  132.7904  156.3743 C.ar    1  UNL1        0.0985
     41 C         142.3389  132.2267  155.9732 C.ar    1  UNL1        0.0203
     42 C         141.3181  133.1082  155.3167 C.ar    1  UNL1       -0.0015
     43 C         141.6282  134.5534  155.0614 C.ar    1  UNL1       -0.0069
     44 C         140.6074  135.4349  154.4050 C.3     1  UNL1        0.0323
@<TRIPOS>UNITY_ATOM_ATTR
35 1
charge -1
@<TRIPOS>BOND
     1    19    20    1
     2    20    13    1
     3    13    14   ar
     4    14    15   ar
     5    15     1    1
     6     1     2   am
     7     2     3    2
     8     2     4   am
     9     4    21    1
    10    21    22   ar
    11    22    23   ar
    12    23    24   ar
    13    24    27    1
    14    27    28   ar
    15    28    29   ar
    16    29    30   ar
    17    30    34    1
    18    34    35   ar
    19    34    36   ar
    20    30    31   ar
    21    31    32    1
    22    31    33   ar
    23    24    25   ar
    24    25    26   ar
    25     4     5   am
    26     5     6    2
    27     5     7    1
    28     7     8    1
    29     8     9    1
    30     9    10    1
    31    10    37    1
    32    37    38    1
    33    38    39   ar
    34    39    40   ar
    35    40    41   ar
    36    41    42   ar
    37    42    43   ar
    38    43    44    1
    39    10    11    1
    40    11    12    1
    41    15    16   ar
    42    16    17   ar
    43    17    18   ar
    44    18    13   ar
    45     7     1    1
    46    43    38   ar
    47    26    21   ar
    48    12     7    1
    49    33    27   ar
@<TRIPOS>MOLECULE
*****
 44 49 0 0 0
SMALL
GASTEIGER

@<TRIPOS>ATOM
      1 N         138.6713  141.0586  158.7387 N.am    1  UNL1       -0.2222
      2 C         138.6975  141.6315  160.1249 C.2     1  UNL1        0.3219
      3 O         137.7556  142.6635  160.6704 O.2     1  UNL1       -0.2512
      4 N         139.8311  140.9910  160.8697 N.am    1  UNL1       -0.1907
      5 C         140.5055  140.0223  159.9440 C.2     1  UNL1        0.2529
      6 O         141.6888  139.1628  160.2767 O.2     1  UNL1       -0.2724
      7 C         139.7886  140.0641  158.6269 C.3     1  UNL1        0.1391
      8 C         138.9773  140.2136  157.3742 C.3     1  UNL1        0.0449
      9 C         139.3180  139.4033  156.1589 C.3     1  UNL1        0.0746
     10 N         140.4701  138.4434  156.1962 N.3     1  UNL1       -0.2676
     11 C         141.2815  138.2939  157.4489 C.3     1  UNL1        0.0746
     12 C         140.9407  139.1043  158.6643 C.3     1  UNL1        0.0449
     13 C         136.9229  143.0294  155.7708 C.ar    1  UNL1        0.2293
     14 C         137.8957  142.6707  156.8547 C.ar    1  UNL1        0.0924
     15 C         137.6985  141.4173  157.6548 C.ar    1  UNL1        0.1453
     16 N         136.5284  140.5227  157.3710 N.ar    1  UNL1       -0.2084
     17 C         135.5556  140.8814  156.2871 C.ar    1  UNL1        0.2027
     18 N         135.7528  142.1348  155.4869 N.ar    1  UNL1       -0.1892
     19 C         138.1892  145.2604  155.3596 C.3     1  UNL1        0.2542
     20 O         137.1201  144.2827  154.9706 O.3     1  UNL1       -0.4560
     21 C         140.2218  141.2701  162.2907 C.ar    1  UNL1        0.0622
     22 C         141.5139  141.9709  162.5895 C.ar    1  UNL1        0.0154
     23 C         141.9045  142.2501  164.0106 C.ar    1  UNL1        0.0013
     24 C         141.0031  141.8283  165.1329 C.ar    1  UNL1        0.0001
     25 C         139.7109  141.1274  164.8342 C.ar    1  UNL1        0.0013
     26 C         139.3204  140.8483  163.4130 C.ar    1  UNL1        0.0154
     27 C         141.3938  142.1075  166.5540 C.ar    1  UNL1       -0.0003
     28 C         142.6813  141.5636  167.0986 C.ar    1  UNL1        0.0000
     29 C         143.0719  141.8428  168.5197 C.ar    1  UNL1        0.0008
     30 C         142.1750  142.6658  169.3961 C.ar    1  UNL1        0.0100
     31 C         140.8875  143.2096  168.8516 C.ar    1  UNL1       -0.0207
     32 C         139.9906  144.0326  169.7282 C.3     1  UNL1        0.0311
     33 C         140.4968  142.9305  167.4306 C.ar    1  UNL1       -0.0042
     34 C         142.5656  142.9449  170.8172 C.2     1  UNL1        0.0726
     35 O         143.5757  144.0113  171.1218 O.co2   1  UNL1       -0.5446
     36 O         141.9462  142.1576  171.9338 O.co2   1  UNL1       -0.5446
     37 C         140.8108  137.6330  154.9807 C.3     1  UNL1        0.1183
     38 C         141.6009  136.3658  155.1215 C.ar    1  UNL1        0.0712
     39 N         140.8919  135.0499  155.2466 N.ar    1  UNL1       -0.2471
     40 C         141.6821  133.7826  155.3874 C.ar    1  UNL1        0.0985
     41 C         143.1812  133.8313  155.4031 C.ar    1  UNL1        0.0203
     42 C         143.8902  135.1473  155.2780 C.ar    1  UNL1       -0.0015
     43 C         143.1001  136.4145  155.1372 C.ar    1  UNL1       -0.0069
     44 C         143.8091  137.7304  155.0121 C.3     1  UNL1        0.0323
@<TRIPOS>UNITY_ATOM_ATTR
35 1
charge -1
@<TRIPOS>BOND
     1    19    20    1
     2    20    13    1
     3    13    14   ar
     4    14    15   ar
     5    15     1    1
     6     1     2   am
     7     2     3    2
     8     2     4   am
     9     4    21    1
    10    21    22   ar
    11    22    23   ar
    12    23    24   ar
    13    24    27    1
    14    27    28   ar
    15    28    29   ar
    16    29    30   ar
    17    30    34    1
    18    34    35   ar
    19    34    36   ar
    20    30    31   ar
    21    31    32    1
    22    31    33   ar
    23    24    25   ar
    24    25    26   ar
    25     4     5   am
    26     5     6    2
    27     5     7    1
    28     7     8    1
    29     8     9    1
    30     9    10    1
    31    10    37    1
    32    37    38    1
    33    38    39   ar
    34    39    40   ar
    35    40    41   ar
    36    41    42   ar
    37    42    43   ar
    38    43    44    1
    39    10    11    1
    40    11    12    1
    41    15    16   ar
    42    16    17   ar
    43    17    18   ar
    44    18    13   ar
    45     7     1    1
    46    43    38   ar
    47    26    21   ar
    48    12     7    1
    49    33    27   ar
@<TRIPOS>MOLECULE
*****
 44 49 0 0 0
SMALL
GASTEIGER

@<TRIPOS>ATOM
      1 N         142.1751  138.5363  158.6437 N.am    1  UNL1       -0.2222
      2 C         141.6168  138.5720  160.0356 C.2     1  UNL1        0.3219
      3 O         140.5656  137.6554  160.5876 O.2     1  UNL1       -0.2512
      4 N         142.2944  139.6851  160.7784 N.am    1  UNL1       -0.1907
      5 C         143.2714  140.3375  159.8457 C.2     1  UNL1        0.2529
      6 O         144.1652  141.4963  160.1744 O.2     1  UNL1       -0.2724
      7 C         143.1977  139.6275  158.5263 C.3     1  UNL1        0.1391
      8 C         143.0144  138.8256  157.2720 C.3     1  UNL1        0.0449
      9 C         143.8215  139.1498  156.0500 C.3     1  UNL1        0.0746
     10 N         144.8119  140.2759  156.0823 N.3     1  UNL1       -0.2676
     11 C         144.9951  141.0778  157.3366 C.3     1  UNL1        0.0746
     12 C         144.1880  140.7536  158.5586 C.3     1  UNL1        0.0449
     13 C         142.2045  135.3876  156.2282 C.ar    1  UNL1        0.2293
     14 C         142.5995  136.3461  157.3123 C.ar    1  UNL1        0.0924
     15 C         141.7800  137.5779  157.5596 C.ar    1  UNL1        0.1453
     16 N         140.5655  137.8512  156.7227 N.ar    1  UNL1       -0.2084
     17 C         140.1705  136.8928  155.6387 C.ar    1  UNL1        0.2027
     18 N         140.9900  135.6609  155.3914 N.ar    1  UNL1       -0.1892
     19 C         143.0584  133.0601  157.0047 C.3     1  UNL1        0.2542
     20 O         143.0239  134.1558  155.9809 O.3     1  UNL1       -0.4560
     21 C         142.0398  140.0771  162.2036 C.ar    1  UNL1        0.0622
     22 C         142.4107  139.1422  163.3163 C.ar    1  UNL1        0.0154
     23 C         142.1560  139.5342  164.7417 C.ar    1  UNL1        0.0013
     24 C         141.5304  140.8612  165.0542 C.ar    1  UNL1        0.0001
     25 C         141.1594  141.7962  163.9414 C.ar    1  UNL1        0.0013
     26 C         141.4142  141.4041  162.5162 C.ar    1  UNL1        0.0154
     27 C         141.2757  141.2532  166.4795 C.ar    1  UNL1       -0.0003
     28 C         142.0726  142.3581  167.1073 C.ar    1  UNL1        0.0000
     29 C         141.8179  142.7501  168.5327 C.ar    1  UNL1        0.0008
     30 C         140.7663  142.0371  169.3301 C.ar    1  UNL1        0.0100
     31 C         139.9694  140.9322  168.7022 C.ar    1  UNL1       -0.0207
     32 C         138.9178  140.2194  169.4997 C.3     1  UNL1        0.0311
     33 C         140.2241  140.5402  167.2770 C.ar    1  UNL1       -0.0042
     34 C         140.5116  142.4291  170.7554 C.2     1  UNL1        0.0726
     35 O         139.3147  143.2646  171.1010 O.co2   1  UNL1       -0.5446
     36 O         141.4538  141.9856  171.8350 O.co2   1  UNL1       -0.5446
     37 C         145.6190  140.6001  154.8601 C.3     1  UNL1        0.1183
     38 C         145.7934  142.0275  154.4334 C.ar    1  UNL1        0.0712
     39 N         144.6499  142.7674  153.8049 N.ar    1  UNL1       -0.2471
     40 C         144.8243  144.1949  153.3781 C.ar    1  UNL1        0.0985
     41 C         146.1422  144.8823  153.5799 C.ar    1  UNL1        0.0203
     42 C         147.2856  144.1424  154.2084 C.ar    1  UNL1       -0.0015
     43 C         147.1112  142.7150  154.6351 C.ar    1  UNL1       -0.0069
     44 C         148.2547  141.9751  155.2636 C.3     1  UNL1        0.0323
@<TRIPOS>UNITY_ATOM_ATTR
35 1
charge -1
@<TRIPOS>BOND
     1    19    20    1
     2    20    13    1
     3    13    14   ar
     4    14    15   ar
     5    15     1    1
     6     1     2   am
     7     2     3    2
     8     2     4   am
     9     4    21    1
    10    21    22   ar
    11    22    23   ar
    12    23    24   ar
    13    24    27    1
    14    27    28   ar
    15    28    29   ar
    16    29    30   ar
    17    30    34    1
    18    34    35   ar
    19    34    36   ar
    20    30    31   ar
    21    31    32    1
    22    31    33   ar
    23    24    25   ar
    24    25    26   ar
    25     4     5   am
    26     5     6    2
    27     5     7    1
    28     7     8    1
    29     8     9    1
    30     9    10    1
    31    10    37    1
    32    37    38    1
    33    38    39   ar
    34    39    40   ar
    35    40    41   ar
    36    41    42   ar
    37    42    43   ar
    38    43    44    1
    39    10    11    1
    40    11    12    1
    41    15    16   ar
    42    16    17   ar
    43    17    18   ar
    44    18    13   ar
    45     7     1    1
    46    43    38   ar
    47    26    21   ar
    48    12     7    1
    49    33    27   ar
@<TRIPOS>MOLECULE
*****
 44 49 0 0 0
SMALL
GASTEIGER

@<TRIPOS>ATOM
      1 N         143.8010  140.9511  158.5974 N.am    1  UNL1       -0.2222
      2 C         143.6870  141.5335  159.9752 C.2     1  UNL1        0.3219
      3 O         144.0162  142.9437  160.3663 O.2     1  UNL1       -0.2512
      4 N         143.1860  140.4580  160.8930 N.am    1  UNL1       -0.1907
      5 C         142.9903  139.2110  160.0826 C.2     1  UNL1        0.2529
      6 O         142.5006  137.8910  160.6000 O.2     1  UNL1       -0.2724
      7 C         143.3704  139.5158  158.6638 C.3     1  UNL1        0.1391
      8 C         143.7829  139.9663  157.2939 C.3     1  UNL1        0.0449
      9 C         143.7399  139.0045  156.1436 C.3     1  UNL1        0.0746
     10 N         143.2846  137.5923  156.3633 N.3     1  UNL1       -0.2676
     11 C         142.8721  137.1418  157.7333 C.3     1  UNL1        0.0746
     12 C         142.9151  138.1035  158.8835 C.3     1  UNL1        0.0449
     13 C         143.7421  143.1592  155.3004 C.ar    1  UNL1        0.2293
     14 C         143.2789  142.4335  156.5287 C.ar    1  UNL1        0.0924
     15 C         144.2643  141.6767  157.3691 C.ar    1  UNL1        0.1453
     16 N         145.7129  141.6456  156.9811 N.ar    1  UNL1       -0.2084
     17 C         146.1762  142.3711  155.7528 C.ar    1  UNL1        0.2027
     18 N         145.1907  143.1280  154.9124 N.ar    1  UNL1       -0.1892
     19 C         141.4488  143.2840  154.0859 C.3     1  UNL1        0.2542
     20 O         142.7568  143.9160  154.4599 O.3     1  UNL1       -0.4560
     21 C         142.9262  140.6039  162.3630 C.ar    1  UNL1        0.0622
     22 C         141.6610  141.2530  162.8403 C.ar    1  UNL1        0.0154
     23 C         141.4012  141.3989  164.3104 C.ar    1  UNL1        0.0013
     24 C         142.4067  140.8957  165.3033 C.ar    1  UNL1        0.0001
     25 C         143.6720  140.2466  164.8260 C.ar    1  UNL1        0.0013
     26 C         143.9317  140.1007  163.3559 C.ar    1  UNL1        0.0154
     27 C         142.1469  141.0416  166.7734 C.ar    1  UNL1       -0.0003
     28 C         142.6506  140.0025  167.7308 C.ar    1  UNL1        0.0000
     29 C         142.3908  140.1485  169.2009 C.ar    1  UNL1        0.0008
     30 C         141.6274  141.3335  169.7136 C.ar    1  UNL1        0.0100
     31 C         141.1237  142.3726  168.7562 C.ar    1  UNL1       -0.0207
     32 C         140.3603  143.5576  169.2689 C.3     1  UNL1        0.0311
     33 C         141.3834  142.2267  167.2862 C.ar    1  UNL1       -0.0042
     34 C         141.3676  141.4794  171.1837 C.2     1  UNL1        0.0726
     35 O         140.3463  140.6097  171.8548 O.co2   1  UNL1       -0.5446
     36 O         142.1292  142.4952  171.9827 O.co2   1  UNL1       -0.5446
     37 C         143.2417  136.6306  155.2129 C.3     1  UNL1        0.1183
     38 C         142.9343  135.1828  155.4568 C.ar    1  UNL1        0.0712
     39 N         143.9755  134.2861  156.0583 N.ar    1  UNL1       -0.2471
     40 C         143.6681  132.8382  156.3022 C.ar    1  UNL1        0.0985
     41 C         142.3196  132.2872  155.9445 C.ar    1  UNL1        0.0203
     42 C         141.2785  133.1840  155.3429 C.ar    1  UNL1       -0.0015
     43 C         141.5858  134.6318  155.0990 C.ar    1  UNL1       -0.0069
     44 C         140.5447  135.5285  154.4975 C.3     1  UNL1        0.0323
@<TRIPOS>UNITY_ATOM_ATTR
35 1
charge -1
@<TRIPOS>BOND
     1    19    20    1
     2    20    13    1
     3    13    14   ar
     4    14    15   ar
     5    15     1    1
     6     1     2   am
     7     2     3    2
     8     2     4   am
     9     4    21    1
    10    21    22   ar
    11    22    23   ar
    12    23    24   ar
    13    24    27    1
    14    27    28   ar
    15    28    29   ar
    16    29    30   ar
    17    30    34    1
    18    34    35   ar
    19    34    36   ar
    20    30    31   ar
    21    31    32    1
    22    31    33   ar
    23    24    25   ar
    24    25    26   ar
    25     4     5   am
    26     5     6    2
    27     5     7    1
    28     7     8    1
    29     8     9    1
    30     9    10    1
    31    10    37    1
    32    37    38    1
    33    38    39   ar
    34    39    40   ar
    35    40    41   ar
    36    41    42   ar
    37    42    43   ar
    38    43    44    1
    39    10    11    1
    40    11    12    1
    41    15    16   ar
    42    16    17   ar
    43    17    18   ar
    44    18    13   ar
    45     7     1    1
    46    43    38   ar
    47    26    21   ar
    48    12     7    1
    49    33    27   ar
@<TRIPOS>MOLECULE
*****
 44 49 0 0 0
SMALL
GASTEIGER

@<TRIPOS>ATOM
      1 N         142.9035  139.4134  158.4932 N.am    1  UNL1       -0.2222
      2 C         142.4554  139.1774  159.9052 C.2     1  UNL1        0.3219
      3 O         141.6432  138.0130  160.3895 O.2     1  UNL1       -0.2512
      4 N         142.9622  140.3103  160.7478 N.am    1  UNL1       -0.1907
      5 C         143.7234  141.2464  159.8566 C.2     1  UNL1        0.2529
      6 O         144.4018  142.5141  160.2837 O.2     1  UNL1       -0.2724
      7 C         143.6871  140.6921  158.4631 C.3     1  UNL1        0.1391
      8 C         143.5661  140.0192  157.1281 C.3     1  UNL1        0.0449
      9 C         144.2019  140.6354  155.9173 C.3     1  UNL1        0.0746
     10 N         144.9586  141.9245  156.0415 N.3     1  UNL1       -0.2676
     11 C         145.0796  142.5975  157.3766 C.3     1  UNL1        0.0746
     12 C         144.4439  141.9812  158.5874 C.3     1  UNL1        0.0449
     13 C         141.0672  137.8192  155.3569 C.ar    1  UNL1        0.2293
     14 C         141.3527  138.7062  156.5324 C.ar    1  UNL1        0.0924
     15 C         142.6180  138.5265  157.3177 C.ar    1  UNL1        0.1453
     16 N         143.5977  137.4598  156.9275 N.ar    1  UNL1       -0.2084
     17 C         143.3123  136.5728  155.7521 C.ar    1  UNL1        0.2027
     18 N         142.0470  136.7525  154.9667 N.ar    1  UNL1       -0.1892
     19 C         138.5616  137.2539  154.9670 C.3     1  UNL1        0.2542
     20 O         139.8020  137.9989  154.5715 O.3     1  UNL1       -0.4560
     21 C         142.7458  140.4776  162.2225 C.ar    1  UNL1        0.0622
     22 C         143.5801  139.6992  163.1961 C.ar    1  UNL1        0.0154
     23 C         143.3637  139.8666  164.6710 C.ar    1  UNL1        0.0013
     24 C         142.3128  140.8123  165.1722 C.ar    1  UNL1        0.0001
     25 C         141.4784  141.5908  164.1986 C.ar    1  UNL1        0.0013
     26 C         141.6949  141.4234  162.7238 C.ar    1  UNL1        0.0154
     27 C         142.0964  140.9797  166.6471 C.ar    1  UNL1       -0.0003
     28 C         142.6502  139.9679  167.6060 C.ar    1  UNL1        0.0000
     29 C         142.4337  140.1352  169.0808 C.ar    1  UNL1        0.0008
     30 C         141.6634  141.3144  169.5967 C.ar    1  UNL1        0.0100
     31 C         141.1096  142.3262  168.6378 C.ar    1  UNL1       -0.0207
     32 C         140.3393  143.5054  169.1537 C.3     1  UNL1        0.0311
     33 C         141.3260  142.1589  167.1630 C.ar    1  UNL1       -0.0042
     34 C         141.4469  141.4818  171.0715 C.2     1  UNL1        0.0726
     35 O         140.4305  140.6371  171.7810 O.co2   1  UNL1       -0.5446
     36 O         142.2470  142.4939  171.8369 O.co2   1  UNL1       -0.5446
     37 C         145.5944  142.5407  154.8306 C.3     1  UNL1        0.1183
     38 C         147.0809  142.4668  154.6444 C.ar    1  UNL1        0.0712
     39 N         147.8995  141.5482  155.5023 N.ar    1  UNL1       -0.2471
     40 C         149.3861  141.4742  155.3160 C.ar    1  UNL1        0.0985
     41 C         150.0540  142.3189  154.2718 C.ar    1  UNL1        0.0203
     42 C         149.2354  143.2375  153.4139 C.ar    1  UNL1       -0.0015
     43 C         147.7489  143.3114  153.6001 C.ar    1  UNL1       -0.0069
     44 C         146.9303  144.2300  152.7422 C.3     1  UNL1        0.0323
@<TRIPOS>UNITY_ATOM_ATTR
35 1
charge -1
@<TRIPOS>BOND
     1    19    20    1
     2    20    13    1
     3    13    14   ar
     4    14    15   ar
     5    15     1    1
     6     1     2   am
     7     2     3    2
     8     2     4   am
     9     4    21    1
    10    21    22   ar
    11    22    23   ar
    12    23    24   ar
    13    24    27    1
    14    27    28   ar
    15    28    29   ar
    16    29    30   ar
    17    30    34    1
    18    34    35   ar
    19    34    36   ar
    20    30    31   ar
    21    31    32    1
    22    31    33   ar
    23    24    25   ar
    24    25    26   ar
    25     4     5   am
    26     5     6    2
    27     5     7    1
    28     7     8    1
    29     8     9    1
    30     9    10    1
    31    10    37    1
    32    37    38    1
    33    38    39   ar
    34    39    40   ar
    35    40    41   ar
    36    41    42   ar
    37    42    43   ar
    38    43    44    1
    39    10    11    1
    40    11    12    1
    41    15    16   ar
    42    16    17   ar
    43    17    18   ar
    44    18    13   ar
    45     7     1    1
    46    43    38   ar
    47    26    21   ar
    48    12     7    1
    49    33    27   ar
@<TRIPOS>MOLECULE
*****
 44 49 0 0 0
SMALL
GASTEIGER

@<TRIPOS>ATOM
      1 N         142.0906  138.5473  158.5135 N.am    1  UNL1       -0.2222
      2 C         142.5099  138.6971  159.9460 C.2     1  UNL1        0.3219
      3 O         143.7961  138.2091  160.5438 O.2     1  UNL1       -0.2512
      4 N         141.4170  139.4207  160.6755 N.am    1  UNL1       -0.1907
      5 C         140.3224  139.7180  159.6940 C.2     1  UNL1        0.2529
      6 O         139.0371  140.4301  159.9957 O.2     1  UNL1       -0.2724
      7 C         140.7386  139.1782  158.3578 C.3     1  UNL1        0.1391
      8 C         141.2871  138.5904  157.0915 C.3     1  UNL1        0.0449
      9 C         140.4912  138.6679  155.8224 C.3     1  UNL1        0.0746
     10 N         139.1468  139.3333  155.8197 N.3     1  UNL1       -0.2676
     11 C         138.5984  139.9211  157.0861 C.3     1  UNL1        0.0746
     12 C         139.3943  139.8436  158.3551 C.3     1  UNL1        0.0449
     13 C         143.6022  135.7318  156.1603 C.ar    1  UNL1        0.2293
     14 C         142.8089  136.3960  157.2463 C.ar    1  UNL1        0.0924
     15 C         142.8839  137.8831  157.4275 C.ar    1  UNL1        0.1453
     16 N         143.7523  138.7060  156.5227 N.ar    1  UNL1       -0.2084
     17 C         144.5457  138.0419  155.4367 C.ar    1  UNL1        0.2027
     18 N         144.4707  136.5547  155.2555 N.ar    1  UNL1       -0.1892
     19 C         143.2292  133.3602  157.1532 C.3     1  UNL1        0.2542
     20 O         143.5273  134.2447  155.9790 O.3     1  UNL1       -0.4560
     21 C         141.4186  139.7833  162.1310 C.ar    1  UNL1        0.0622
     22 C         141.3929  141.2248  162.5448 C.ar    1  UNL1        0.0154
     23 C         141.3945  141.5874  164.0004 C.ar    1  UNL1        0.0013
     24 C         141.4217  140.5085  165.0420 C.ar    1  UNL1        0.0001
     25 C         141.4474  139.0668  164.6282 C.ar    1  UNL1        0.0013
     26 C         141.4459  138.7043  163.1726 C.ar    1  UNL1        0.0154
     27 C         141.4233  140.8710  166.4976 C.ar    1  UNL1       -0.0003
     28 C         140.9163  142.2126  166.9368 C.ar    1  UNL1        0.0000
     29 C         140.9178  142.5752  168.3924 C.ar    1  UNL1        0.0008
     30 C         141.4265  141.5961  169.4086 C.ar    1  UNL1        0.0100
     31 C         141.9335  140.2545  168.9693 C.ar    1  UNL1       -0.0207
     32 C         142.4421  139.2754  169.9856 C.3     1  UNL1        0.0311
     33 C         141.9319  139.8919  167.5139 C.ar    1  UNL1       -0.0042
     34 C         141.4280  141.9587  170.8641 C.2     1  UNL1        0.0726
     35 O         142.4067  142.9694  171.3842 O.co2   1  UNL1       -0.5446
     36 O         140.4508  141.3104  171.7996 O.co2   1  UNL1       -0.5446
     37 C         138.3509  139.4108  154.5506 C.3     1  UNL1        0.1183
     38 C         136.9555  139.9606  154.5728 C.ar    1  UNL1        0.0712
     39 N         135.8366  139.1439  155.1482 N.ar    1  UNL1       -0.2471
     40 C         134.4412  139.6939  155.1704 C.ar    1  UNL1        0.0985
     41 C         134.1647  141.0604  154.6173 C.ar    1  UNL1        0.0203
     42 C         135.2836  141.8771  154.0419 C.ar    1  UNL1       -0.0015
     43 C         136.6790  141.3272  154.0196 C.ar    1  UNL1       -0.0069
     44 C         137.7979  142.1439  153.4442 C.3     1  UNL1        0.0323
@<TRIPOS>UNITY_ATOM_ATTR
35 1
charge -1
@<TRIPOS>BOND
     1    19    20    1
     2    20    13    1
     3    13    14   ar
     4    14    15   ar
     5    15     1    1
     6     1     2   am
     7     2     3    2
     8     2     4   am
     9     4    21    1
    10    21    22   ar
    11    22    23   ar
    12    23    24   ar
    13    24    27    1
    14    27    28   ar
    15    28    29   ar
    16    29    30   ar
    17    30    34    1
    18    34    35   ar
    19    34    36   ar
    20    30    31   ar
    21    31    32    1
    22    31    33   ar
    23    24    25   ar
    24    25    26   ar
    25     4     5   am
    26     5     6    2
    27     5     7    1
    28     7     8    1
    29     8     9    1
    30     9    10    1
    31    10    37    1
    32    37    38    1
    33    38    39   ar
    34    39    40   ar
    35    40    41   ar
    36    41    42   ar
    37    42    43   ar
    38    43    44    1
    39    10    11    1
    40    11    12    1
    41    15    16   ar
    42    16    17   ar
    43    17    18   ar
    44    18    13   ar
    45     7     1    1
    46    43    38   ar
    47    26    21   ar
    48    12     7    1
    49    33    27   ar
@<TRIPOS>MOLECULE
*****
 44 49 0 0 0
SMALL
GASTEIGER

@<TRIPOS>ATOM
      1 N         140.1310  139.7912  158.5176 N.am    1  UNL1       -0.2222
      2 C         139.7211  140.4751  159.7883 C.2     1  UNL1        0.3219
      3 O         138.6923  141.5594  159.9137 O.2     1  UNL1       -0.2512
      4 N         140.5207  139.8841  160.9115 N.am    1  UNL1       -0.1907
      5 C         141.4247  138.8351  160.3350 C.2     1  UNL1        0.2529
      6 O         142.3986  137.9915  161.1031 O.2     1  UNL1       -0.2724
      7 C         141.1839  138.7777  158.8555 C.3     1  UNL1        0.1391
      8 C         140.8369  138.8340  157.3973 C.3     1  UNL1        0.0449
      9 C         141.5277  137.9230  156.4263 C.3     1  UNL1        0.0746
     10 N         142.5655  136.9557  156.9135 N.3     1  UNL1       -0.2676
     11 C         142.9125  136.8994  158.3717 C.3     1  UNL1        0.0746
     12 C         142.2217  137.8104  159.3427 C.3     1  UNL1        0.0449
     13 C         139.6032  141.4748  154.9628 C.ar    1  UNL1        0.2293
     14 C         140.1501  141.1942  156.3311 C.ar    1  UNL1        0.0924
     15 C         139.5841  140.0717  157.1494 C.ar    1  UNL1        0.1453
     16 N         138.4711  139.2298  156.5994 N.ar    1  UNL1       -0.2084
     17 C         137.9242  139.5102  155.2312 C.ar    1  UNL1        0.2027
     18 N         138.4902  140.6328  154.4128 N.ar    1  UNL1       -0.1892
     19 C         139.4780  143.9283  154.1176 C.3     1  UNL1        0.2542
     20 O         140.1691  142.5972  154.1444 O.3     1  UNL1       -0.4560
     21 C         140.4318  140.2737  162.3572 C.ar    1  UNL1        0.0622
     22 C         139.2608  139.8300  163.1829 C.ar    1  UNL1        0.0154
     23 C         139.1719  140.2197  164.6287 C.ar    1  UNL1        0.0013
     24 C         140.2540  141.0530  165.2488 C.ar    1  UNL1        0.0001
     25 C         141.4251  141.4967  164.4230 C.ar    1  UNL1        0.0013
     26 C         141.5139  141.1070  162.9773 C.ar    1  UNL1        0.0154
     27 C         140.1651  141.4426  166.6946 C.ar    1  UNL1       -0.0003
     28 C         140.6243  142.8011  167.1348 C.ar    1  UNL1        0.0000
     29 C         140.5354  143.1907  168.5806 C.ar    1  UNL1        0.0008
     30 C         139.9874  142.2218  169.5861 C.ar    1  UNL1        0.0100
     31 C         139.5282  140.8634  169.1458 C.ar    1  UNL1       -0.0207
     32 C         138.9802  139.8946  170.1514 C.3     1  UNL1        0.0311
     33 C         139.6171  140.4738  167.7001 C.ar    1  UNL1       -0.0042
     34 C         139.8985  142.6115  171.0319 C.2     1  UNL1        0.0726
     35 O         138.8710  143.6091  171.4780 O.co2   1  UNL1       -0.5446
     36 O         140.8372  142.0035  172.0316 O.co2   1  UNL1       -0.5446
     37 C         143.2563  136.0447  155.9424 C.3     1  UNL1        0.1183
     38 C         143.0439  134.5621  156.0237 C.ar    1  UNL1        0.0712
     39 N         143.9412  133.7219  156.8835 N.ar    1  UNL1       -0.2471
     40 C         143.7288  132.2392  156.9648 C.ar    1  UNL1        0.0985
     41 C         142.6192  131.5967  156.1864 C.ar    1  UNL1        0.0203
     42 C         141.7219  132.4369  155.3267 C.ar    1  UNL1       -0.0015
     43 C         141.9343  133.9195  155.2453 C.ar    1  UNL1       -0.0069
     44 C         141.0370  134.7596  154.3856 C.3     1  UNL1        0.0323
@<TRIPOS>UNITY_ATOM_ATTR
35 1
charge -1
@<TRIPOS>BOND
     1    19    20    1
     2    20    13    1
     3    13    14   ar
     4    14    15   ar
     5    15     1    1
     6     1     2   am
     7     2     3    2
     8     2     4   am
     9     4    21    1
    10    21    22   ar
    11    22    23   ar
    12    23    24   ar
    13    24    27    1
    14    27    28   ar
    15    28    29   ar
    16    29    30   ar
    17    30    34    1
    18    34    35   ar
    19    34    36   ar
    20    30    31   ar
    21    31    32    1
    22    31    33   ar
    23    24    25   ar
    24    25    26   ar
    25     4     5   am
    26     5     6    2
    27     5     7    1
    28     7     8    1
    29     8     9    1
    30     9    10    1
    31    10    37    1
    32    37    38    1
    33    38    39   ar
    34    39    40   ar
    35    40    41   ar
    36    41    42   ar
    37    42    43   ar
    38    43    44    1
    39    10    11    1
    40    11    12    1
    41    15    16   ar
    42    16    17   ar
    43    17    18   ar
    44    18    13   ar
    45     7     1    1
    46    43    38   ar
    47    26    21   ar
    48    12     7    1
    49    33    27   ar
@<TRIPOS>MOLECULE
*****
 44 49 0 0 0
SMALL
GASTEIGER

@<TRIPOS>ATOM
      1 N         139.1074  141.0288  158.5769 N.am    1  UNL1       -0.2222
      2 C         138.9847  141.5002  159.9957 C.2     1  UNL1        0.3219
      3 O         138.1529  142.6538  160.4727 O.2     1  UNL1       -0.2512
      4 N         139.8397  140.6154  160.8537 N.am    1  UNL1       -0.1907
      5 C         140.4909  139.5973  159.9653 C.2     1  UNL1        0.2529
      6 O         141.4298  138.5139  160.4064 O.2     1  UNL1       -0.2724
      7 C         140.0383  139.8527  158.5581 C.3     1  UNL1        0.1391
      8 C         139.5013  140.2274  157.2086 C.3     1  UNL1        0.0449
      9 C         139.9082  139.4443  155.9957 C.3     1  UNL1        0.0746
     10 N         140.8521  138.2866  156.1323 N.3     1  UNL1       -0.2676
     11 C         141.3891  137.9119  157.4818 C.3     1  UNL1        0.0746
     12 C         140.9822  138.6950  158.6947 C.3     1  UNL1        0.0449
     13 C         136.3589  141.7642  155.8102 C.ar    1  UNL1        0.2293
     14 C         137.0464  141.1648  157.0010 C.ar    1  UNL1        0.0924
     15 C         138.4200  141.6283  157.3861 C.ar    1  UNL1        0.1453
     16 N         139.1062  142.6913  156.5803 N.ar    1  UNL1       -0.2084
     17 C         138.4188  143.2907  155.3896 C.ar    1  UNL1        0.2027
     18 N         137.0451  142.8272  155.0045 N.ar    1  UNL1       -0.1892
     19 C         134.2607  140.3073  156.2842 C.3     1  UNL1        0.2542
     20 O         134.9853  141.3008  155.4251 O.3     1  UNL1       -0.4560
     21 C         140.0131  140.7289  162.3392 C.ar    1  UNL1        0.0622
     22 C         138.8522  140.4664  163.2521 C.ar    1  UNL1        0.0154
     23 C         139.0256  140.5799  164.7377 C.ar    1  UNL1        0.0013
     24 C         140.3599  140.9558  165.3105 C.ar    1  UNL1        0.0001
     25 C         141.5210  141.2184  164.3977 C.ar    1  UNL1        0.0013
     26 C         141.3475  141.1049  162.9121 C.ar    1  UNL1        0.0154
     27 C         140.5333  141.0693  166.7961 C.ar    1  UNL1       -0.0003
     28 C         139.5128  140.4708  167.7182 C.ar    1  UNL1        0.0000
     29 C         139.6862  140.5843  169.2039 C.ar    1  UNL1        0.0008
     30 C         140.8802  141.2963  169.7673 C.ar    1  UNL1        0.0100
     31 C         141.9008  141.8948  168.8452 C.ar    1  UNL1       -0.0207
     32 C         143.0947  142.6068  169.4087 C.3     1  UNL1        0.0311
     33 C         141.7274  141.7814  167.3596 C.ar    1  UNL1       -0.0042
     34 C         141.0537  141.4098  171.2529 C.2     1  UNL1        0.0726
     35 O         140.1912  142.3523  172.0389 O.co2   1  UNL1       -0.5446
     36 O         142.0896  140.5807  171.9526 O.co2   1  UNL1       -0.5446
     37 C         141.2590  137.5035  154.9193 C.3     1  UNL1        0.1183
     38 C         141.7912  136.1093  155.0704 C.ar    1  UNL1        0.0712
     39 N         140.8529  134.9398  155.0302 N.ar    1  UNL1       -0.2471
     40 C         141.3852  133.5455  155.1813 C.ar    1  UNL1        0.0985
     41 C         142.8559  133.3209  155.3727 C.ar    1  UNL1        0.0203
     42 C         143.7943  134.4905  155.4129 C.ar    1  UNL1       -0.0015
     43 C         143.2620  135.8846  155.2618 C.ar    1  UNL1       -0.0069
     44 C         144.2003  137.0542  155.3020 C.3     1  UNL1        0.0323
@<TRIPOS>UNITY_ATOM_ATTR
35 1
charge -1
@<TRIPOS>BOND
     1    19    20    1
     2    20    13    1
     3    13    14   ar
     4    14    15   ar
     5    15     1    1
     6     1     2   am
     7     2     3    2
     8     2     4   am
     9     4    21    1
    10    21    22   ar
    11    22    23   ar
    12    23    24   ar
    13    24    27    1
    14    27    28   ar
    15    28    29   ar
    16    29    30   ar
    17    30    34    1
    18    34    35   ar
    19    34    36   ar
    20    30    31   ar
    21    31    32    1
    22    31    33   ar
    23    24    25   ar
    24    25    26   ar
    25     4     5   am
    26     5     6    2
    27     5     7    1
    28     7     8    1
    29     8     9    1
    30     9    10    1
    31    10    37    1
    32    37    38    1
    33    38    39   ar
    34    39    40   ar
    35    40    41   ar
    36    41    42   ar
    37    42    43   ar
    38    43    44    1
    39    10    11    1
    40    11    12    1
    41    15    16   ar
    42    16    17   ar
    43    17    18   ar
    44    18    13   ar
    45     7     1    1
    46    43    38   ar
    47    26    21   ar
    48    12     7    1
    49    33    27   ar
