@<TRIPOS>MOLECULE
*****
 36 38 0 0 0
SMALL
GASTEIGER

@<TRIPOS>ATOM
      1 C         140.8913  138.8790  160.6903 C.3     1  UNL1        0.1017
      2 C         139.8105  138.6476  159.6762 C.3     1  UNL1        0.0394
      3 C         140.1683  138.2294  158.2808 C.3     1  UNL1        0.0739
      4 N         141.6069  138.0425  157.8995 N.3     1  UNL1       -0.2705
      5 C         142.6878  138.2738  158.9135 C.3     1  UNL1        0.1037
      6 C         142.3300  138.6920  160.3089 C.3     1  UNL1        0.1490
      7 C         140.4933  138.2792  163.1866 C.2     1  UNL1        0.2488
      8 O         140.8109  136.8431  162.8923 O.2     1  UNL1       -0.2700
      9 N         140.5336  139.2972  162.0856 N.am    1  UNL1       -0.2999
     10 H         140.3251  140.2397  162.2788 H       1  UNL1        0.1498
     11 C         141.0565  139.5936  165.3558 C.ar    1  UNL1        0.1443
     12 C         140.6987  140.0119  166.7511 C.ar    1  UNL1        0.0520
     13 C         139.4199  139.5339  167.3727 C.ar    1  UNL1        0.0553
     14 N         139.0621  139.9522  168.7682 N.pl3   1  UNL1       -0.3563
     15 C         138.4990  138.6378  166.5990 C.ar    1  UNL1        0.0709
     16 CL        137.2202  138.1599  167.2206 Cl      1  UNL1       -0.0810
     17 C         138.8568  138.2196  165.2036 C.ar    1  UNL1        0.0202
     18 C         140.1355  138.6975  164.5821 C.ar    1  UNL1        0.0882
     19 H         139.6666  140.5404  169.2760 H       1  UNL1        0.1424
     20 H         138.2228  139.6386  169.1761 H       1  UNL1        0.1424
     21 C         143.6191  139.3457  165.0074 C.3     1  UNL1        0.2525
     22 O         142.3352  140.0716  164.7342 O.3     1  UNL1       -0.4712
     23 O         143.4108  138.9234  161.3229 O.3     1  UNL1       -0.3505
     24 C         144.0618  140.2704  161.4313 C.3     1  UNL1        0.1741
     25 C         141.9647  137.6243  156.5041 C.3     1  UNL1        0.0722
     26 C         142.1856  136.1745  156.1890 C.3     1  UNL1        0.0194
     27 C         143.4296  135.4847  156.6649 C.3     1  UNL1        0.0230
     28 C         143.6505  134.0349  156.3498 C.3     1  UNL1        0.0950
     29 N         142.6273  133.2749  155.5589 N.am    1  UNL1       -0.2640
     30 C         142.8482  131.8251  155.2438 C.2     1  UNL1        0.3073
     31 O         141.8250  131.0652  154.4528 O.2     1  UNL1       -0.2523
     32 N         144.0923  131.1353  155.7196 N.am    1  UNL1       -0.2605
     33 C         144.3132  129.6855  155.4045 C.3     1  UNL1        0.1165
     34 C         145.1154  131.8952  156.5105 C.3     1  UNL1        0.1165
     35 C         141.3832  133.9648  155.0830 C.3     1  UNL1        0.0950
     36 C         141.1623  135.4146  155.3981 C.3     1  UNL1        0.0230
@<TRIPOS>BOND
     1    21    22    1
     2    22    11    1
     3    11    12   ar
     4    12    13   ar
     5    13    14    1
     6    13    15   ar
     7    15    16    1
     8    15    17   ar
     9    17    18   ar
    10    18     7    1
    11     7     8    2
    12     7     9   am
    13     1     9    1
    14     1     2    1
    15     2     3    1
    16     3     4    1
    17     4    25    1
    18    25    26    1
    19    26    27    1
    20    27    28    1
    21    28    29    1
    22    29    30   am
    23    30    31    2
    24    30    32   am
    25    32    33    1
    26    32    34    1
    27    29    35    1
    28    35    36    1
    29     4     5    1
    30     5     6    1
    31     6    23    1
    32    23    24    1
    33    18    11   ar
    34     6     1    1
    35    36    26    1
    36    14    19    1
    37    14    20    1
    38     9    10    1
@<TRIPOS>MOLECULE
*****
 36 38 0 0 0
SMALL
GASTEIGER

@<TRIPOS>ATOM
      1 C         138.7390  140.1925  160.1664 C.3     1  UNL1        0.1017
      2 C         139.3513  138.8238  160.1253 C.3     1  UNL1        0.0394
      3 C         139.4805  138.0218  161.3863 C.3     1  UNL1        0.0739
      4 N         138.9973  138.5885  162.6884 N.3     1  UNL1       -0.2705
      5 C         138.3850  139.9572  162.7295 C.3     1  UNL1        0.1037
      6 C         138.2558  140.7592  161.4685 C.3     1  UNL1        0.1490
      7 C         137.3292  140.9639  158.1250 C.2     1  UNL1        0.2488
      8 O         136.1778  140.1312  158.6054 O.2     1  UNL1       -0.2700
      9 N         138.6098  140.9945  158.9055 N.am    1  UNL1       -0.2999
     10 H         139.3655  141.5411  158.5901 H       1  UNL1        0.1498
     11 C         136.4895  141.1873  155.6765 C.ar    1  UNL1        0.1443
     12 C         136.3604  141.9893  154.4156 C.ar    1  UNL1        0.0520
     13 C         136.9418  143.3701  154.3421 C.ar    1  UNL1        0.0553
     14 N         136.8127  144.1722  153.0811 N.pl3   1  UNL1       -0.3563
     15 C         137.6524  143.9488  155.5296 C.ar    1  UNL1        0.0709
     16 CL        138.2338  145.3296  155.4562 Cl      1  UNL1       -0.0810
     17 C         137.7815  143.1467  156.7905 C.ar    1  UNL1        0.0202
     18 C         137.2001  141.7660  156.8639 C.ar    1  UNL1        0.0882
     19 H         136.3463  143.7924  152.3017 H       1  UNL1        0.1424
     20 H         137.1943  145.0784  153.0329 H       1  UNL1        0.1424
     21 C         134.4558  139.5871  155.4452 C.3     1  UNL1        0.2525
     22 O         135.9080  139.8065  155.7499 O.3     1  UNL1       -0.4712
     23 O         137.6434  142.1279  161.5097 O.3     1  UNL1       -0.3505
     24 C         137.7266  142.9494  162.7619 C.3     1  UNL1        0.1741
     25 C         139.1265  137.7864  163.9493 C.3     1  UNL1        0.0722
     26 C         139.2437  138.4830  165.2726 C.3     1  UNL1        0.0194
     27 C         140.5175  139.1843  165.6408 C.3     1  UNL1        0.0230
     28 C         140.6347  139.8809  166.9641 C.3     1  UNL1        0.0950
     29 N         139.4780  139.8762  167.9191 N.am    1  UNL1       -0.2640
     30 C         139.5952  140.5729  169.2424 C.2     1  UNL1        0.3073
     31 O         138.4384  140.5682  170.1974 O.2     1  UNL1       -0.2523
     32 N         140.8690  141.2741  169.6106 N.am    1  UNL1       -0.2605
     33 C         140.9862  141.9707  170.9339 C.3     1  UNL1        0.1165
     34 C         142.0256  141.2787  168.6556 C.3     1  UNL1        0.1165
     35 C         138.2041  139.1750  167.5509 C.3     1  UNL1        0.0950
     36 C         138.0869  138.4784  166.2276 C.3     1  UNL1        0.0230
@<TRIPOS>BOND
     1    21    22    1
     2    22    11    1
     3    11    12   ar
     4    12    13   ar
     5    13    14    1
     6    13    15   ar
     7    15    16    1
     8    15    17   ar
     9    17    18   ar
    10    18     7    1
    11     7     8    2
    12     7     9   am
    13     1     9    1
    14     1     2    1
    15     2     3    1
    16     3     4    1
    17     4    25    1
    18    25    26    1
    19    26    27    1
    20    27    28    1
    21    28    29    1
    22    29    30   am
    23    30    31    2
    24    30    32   am
    25    32    33    1
    26    32    34    1
    27    29    35    1
    28    35    36    1
    29     4     5    1
    30     5     6    1
    31     6    23    1
    32    23    24    1
    33    18    11   ar
    34     6     1    1
    35    36    26    1
    36    14    19    1
    37    14    20    1
    38     9    10    1
@<TRIPOS>MOLECULE
*****
 36 38 0 0 0
SMALL
GASTEIGER

@<TRIPOS>ATOM
      1 C         141.9408  143.3689  163.1398 C.3     1  UNL1        0.1017
      2 C         140.9856  144.5072  162.9351 C.3     1  UNL1        0.0394
      3 C         140.8479  145.1364  161.5804 C.3     1  UNL1        0.0739
      4 N         141.6652  144.6271  160.4304 N.3     1  UNL1       -0.2705
      5 C         142.6203  143.4888  160.6350 C.3     1  UNL1        0.1037
      6 C         142.7581  142.8596  161.9897 C.3     1  UNL1        0.1490
      7 C         141.1093  141.6820  164.9323 C.2     1  UNL1        0.2488
      8 O         140.0023  141.2533  164.0154 O.2     1  UNL1       -0.2700
      9 N         142.0785  142.7398  164.4945 N.am    1  UNL1       -0.2999
     10 H         142.8051  143.0211  165.0963 H       1  UNL1        0.1498
     11 C         142.5083  140.3277  166.6524 C.ar    1  UNL1        0.1443
     12 C         142.6461  139.6987  168.0071 C.ar    1  UNL1        0.0520
     13 C         141.5227  139.7947  168.9964 C.ar    1  UNL1        0.0553
     14 N         141.6605  139.1656  170.3512 N.pl3   1  UNL1       -0.3563
     15 C         140.2615  140.5198  168.6310 C.ar    1  UNL1        0.0709
     16 CL        139.1381  140.6158  169.6203 Cl      1  UNL1       -0.0810
     17 C         140.1237  141.1489  167.2763 C.ar    1  UNL1        0.0202
     18 C         141.2471  141.0528  166.2870 C.ar    1  UNL1        0.0882
     19 H         142.4883  138.6897  170.5910 H       1  UNL1        0.1424
     20 H         140.9232  139.2286  171.0005 H       1  UNL1        0.1424
     21 C         143.7432  139.0326  164.7689 C.3     1  UNL1        0.2525
     22 O         143.6318  140.2317  165.6631 O.3     1  UNL1       -0.4712
     23 O         143.7132  141.7213  162.1943 O.3     1  UNL1       -0.3505
     24 C         145.1191  141.9929  162.6411 C.3     1  UNL1        0.1741
     25 C         141.5274  145.2562  159.0757 C.3     1  UNL1        0.0722
     26 C         140.4540  144.7895  158.1377 C.3     1  UNL1        0.0194
     27 C         139.7103  143.5183  158.4219 C.3     1  UNL1        0.0230
     28 C         138.6369  143.0515  157.4839 C.3     1  UNL1        0.0950
     29 N         138.3072  143.8560  156.2616 N.am    1  UNL1       -0.2640
     30 C         137.2337  143.3893  155.3235 C.2     1  UNL1        0.3073
     31 O         136.9040  144.1939  154.1012 O.2     1  UNL1       -0.2523
     32 N         136.4900  142.1181  155.6078 N.am    1  UNL1       -0.2605
     33 C         135.4166  141.6513  154.6697 C.3     1  UNL1        0.1165
     34 C         136.8198  141.3136  156.8301 C.3     1  UNL1        0.1165
     35 C         139.0509  145.1274  155.9773 C.3     1  UNL1        0.0950
     36 C         140.1243  145.5941  156.9153 C.3     1  UNL1        0.0230
@<TRIPOS>BOND
     1    21    22    1
     2    22    11    1
     3    11    12   ar
     4    12    13   ar
     5    13    14    1
     6    13    15   ar
     7    15    16    1
     8    15    17   ar
     9    17    18   ar
    10    18     7    1
    11     7     8    2
    12     7     9   am
    13     1     9    1
    14     1     2    1
    15     2     3    1
    16     3     4    1
    17     4    25    1
    18    25    26    1
    19    26    27    1
    20    27    28    1
    21    28    29    1
    22    29    30   am
    23    30    31    2
    24    30    32   am
    25    32    33    1
    26    32    34    1
    27    29    35    1
    28    35    36    1
    29     4     5    1
    30     5     6    1
    31     6    23    1
    32    23    24    1
    33    18    11   ar
    34     6     1    1
    35    36    26    1
    36    14    19    1
    37    14    20    1
    38     9    10    1
@<TRIPOS>MOLECULE
*****
 36 38 0 0 0
SMALL
GASTEIGER

@<TRIPOS>ATOM
      1 C         139.4408  139.2193  162.8967 C.3     1  UNL1        0.1017
      2 C         138.3010  139.9984  162.3103 C.3     1  UNL1        0.0394
      3 C         138.1373  140.0822  160.8215 C.3     1  UNL1        0.0739
      4 N         139.1133  139.3870  159.9193 N.3     1  UNL1       -0.2705
      5 C         140.2531  138.6079  160.5058 C.3     1  UNL1        0.1037
      6 C         140.4168  138.5240  161.9944 C.3     1  UNL1        0.1490
      7 C         140.5075  140.0996  165.0960 C.2     1  UNL1        0.2488
      8 O         141.2467  141.1476  164.3181 O.2     1  UNL1       -0.2700
      9 N         139.6046  139.1354  164.3853 N.am    1  UNL1       -0.2999
     10 H         139.1195  138.4476  164.8960 H       1  UNL1        0.1498
     11 C         142.0256  139.7612  167.1772 C.ar    1  UNL1        0.1443
     12 C         142.1893  139.6773  168.6658 C.ar    1  UNL1        0.0520
     13 C         140.9987  139.8480  169.5621 C.ar    1  UNL1        0.0553
     14 N         141.1624  139.7641  171.0508 N.pl3   1  UNL1       -0.3563
     15 C         139.6443  140.1025  168.9697 C.ar    1  UNL1        0.0709
     16 CL        138.4537  140.2731  169.8659 Cl      1  UNL1       -0.0810
     17 C         139.4806  140.1864  167.4810 C.ar    1  UNL1        0.0202
     18 C         140.6713  140.0157  166.5848 C.ar    1  UNL1        0.0882
     19 H         142.0513  139.5970  171.4396 H       1  UNL1        0.1424
     20 H         140.3810  139.8761  171.6391 H       1  UNL1        0.1424
     21 C         143.8249  138.2326  166.0929 C.3     1  UNL1        0.2525
     22 O         143.2162  139.5905  166.2809 O.3     1  UNL1       -0.4712
     23 O         141.5566  137.7449  162.5809 O.3     1  UNL1       -0.3505
     24 C         142.9651  138.2309  162.4075 C.3     1  UNL1        0.1741
     25 C         138.9495  139.4708  158.4307 C.3     1  UNL1        0.0722
     26 C         138.7792  140.8061  157.7689 C.3     1  UNL1        0.0194
     27 C         139.7731  141.9007  158.0219 C.3     1  UNL1        0.0230
     28 C         139.6028  143.2361  157.3602 C.3     1  UNL1        0.0950
     29 N         138.4387  143.4768  156.4454 N.am    1  UNL1       -0.2640
     30 C         138.2685  144.8121  155.7836 C.2     1  UNL1        0.3073
     31 O         137.1043  145.0527  154.8688 O.2     1  UNL1       -0.2523
     32 N         139.2623  145.9067  156.0366 N.am    1  UNL1       -0.2605
     33 C         139.0920  147.2420  155.3748 C.3     1  UNL1        0.1165
     34 C         140.4264  145.6660  156.9514 C.3     1  UNL1        0.1165
     35 C         137.4448  142.3821  156.1923 C.3     1  UNL1        0.0950
     36 C         137.6151  141.0468  156.8541 C.3     1  UNL1        0.0230
@<TRIPOS>BOND
     1    21    22    1
     2    22    11    1
     3    11    12   ar
     4    12    13   ar
     5    13    14    1
     6    13    15   ar
     7    15    16    1
     8    15    17   ar
     9    17    18   ar
    10    18     7    1
    11     7     8    2
    12     7     9   am
    13     1     9    1
    14     1     2    1
    15     2     3    1
    16     3     4    1
    17     4    25    1
    18    25    26    1
    19    26    27    1
    20    27    28    1
    21    28    29    1
    22    29    30   am
    23    30    31    2
    24    30    32   am
    25    32    33    1
    26    32    34    1
    27    29    35    1
    28    35    36    1
    29     4     5    1
    30     5     6    1
    31     6    23    1
    32    23    24    1
    33    18    11   ar
    34     6     1    1
    35    36    26    1
    36    14    19    1
    37    14    20    1
    38     9    10    1
@<TRIPOS>MOLECULE
*****
 36 38 0 0 0
SMALL
GASTEIGER

@<TRIPOS>ATOM
      1 C         141.9078  139.7297  160.5454 C.3     1  UNL1        0.1017
      2 C         143.1048  139.7061  159.6418 C.3     1  UNL1        0.0394
      3 C         143.0222  139.0304  158.3051 C.3     1  UNL1        0.0739
      4 N         141.7426  138.3785  157.8720 N.3     1  UNL1       -0.2705
      5 C         140.5455  138.4022  158.7757 C.3     1  UNL1        0.1037
      6 C         140.6281  139.0778  160.1123 C.3     1  UNL1        0.1490
      7 C         142.4290  139.6297  163.0887 C.2     1  UNL1        0.2488
      8 O         142.7852  138.1784  162.9586 O.2     1  UNL1       -0.2700
      9 N         141.9903  140.4053  161.8821 N.am    1  UNL1       -0.2999
     10 H         141.7566  141.3579  161.9675 H       1  UNL1        0.1498
     11 C         143.4277  141.4773  164.6180 C.ar    1  UNL1        0.1443
     12 C         143.5102  142.1529  165.9547 C.ar    1  UNL1        0.0520
     13 C         142.6766  141.6566  167.0987 C.ar    1  UNL1        0.0553
     14 N         142.7592  142.3323  168.4354 N.pl3   1  UNL1       -0.3563
     15 C         141.7605  140.4846  166.9060 C.ar    1  UNL1        0.0709
     16 CL        140.9269  139.9883  168.0500 Cl      1  UNL1       -0.0810
     17 C         141.6780  139.8090  165.5694 C.ar    1  UNL1        0.0202
     18 C         142.5116  140.3054  164.4254 C.ar    1  UNL1        0.0882
     19 H         143.3605  143.1015  168.5619 H       1  UNL1        0.1424
     20 H         142.2120  142.0065  169.1863 H       1  UNL1        0.1424
     21 C         145.7386  141.7147  163.4548 C.3     1  UNL1        0.2525
     22 O         144.2613  141.9737  163.4741 O.3     1  UNL1       -0.4712
     23 O         139.4311  139.1015  161.0159 O.3     1  UNL1       -0.3505
     24 C         139.2241  138.0024  162.0155 C.3     1  UNL1        0.1741
     25 C         141.6600  137.7029  156.5354 C.3     1  UNL1        0.0722
     26 C         141.9780  136.2421  156.4124 C.3     1  UNL1        0.0194
     27 C         143.0998  135.6489  157.2121 C.3     1  UNL1        0.0230
     28 C         143.4177  134.1881  157.0891 C.3     1  UNL1        0.0950
     29 N         142.6139  133.3207  156.1665 N.am    1  UNL1       -0.2640
     30 C         142.9319  131.8599  156.0435 C.2     1  UNL1        0.3073
     31 O         142.1280  130.9924  155.1208 O.2     1  UNL1       -0.2523
     32 N         144.0537  131.2666  156.8432 N.am    1  UNL1       -0.2605
     33 C         144.3716  129.8059  156.7202 C.3     1  UNL1        0.1165
     34 C         144.8575  132.1341  157.7658 C.3     1  UNL1        0.1165
     35 C         141.4920  133.9139  155.3667 C.3     1  UNL1        0.0950
     36 C         141.1741  135.3747  155.4897 C.3     1  UNL1        0.0230
@<TRIPOS>BOND
     1    21    22    1
     2    22    11    1
     3    11    12   ar
     4    12    13   ar
     5    13    14    1
     6    13    15   ar
     7    15    16    1
     8    15    17   ar
     9    17    18   ar
    10    18     7    1
    11     7     8    2
    12     7     9   am
    13     1     9    1
    14     1     2    1
    15     2     3    1
    16     3     4    1
    17     4    25    1
    18    25    26    1
    19    26    27    1
    20    27    28    1
    21    28    29    1
    22    29    30   am
    23    30    31    2
    24    30    32   am
    25    32    33    1
    26    32    34    1
    27    29    35    1
    28    35    36    1
    29     4     5    1
    30     5     6    1
    31     6    23    1
    32    23    24    1
    33    18    11   ar
    34     6     1    1
    35    36    26    1
    36    14    19    1
    37    14    20    1
    38     9    10    1
@<TRIPOS>MOLECULE
*****
 36 38 0 0 0
SMALL
GASTEIGER

@<TRIPOS>ATOM
      1 C         138.3611  140.6357  163.4327 C.3     1  UNL1        0.1017
      2 C         138.3431  139.3136  162.7243 C.3     1  UNL1        0.0394
      3 C         138.2154  139.2647  161.2305 C.3     1  UNL1        0.0739
      4 N         138.1056  140.5379  160.4451 N.3     1  UNL1       -0.2705
      5 C         138.1236  141.8600  161.1535 C.3     1  UNL1        0.1037
      6 C         138.2513  141.9089  162.6472 C.3     1  UNL1        0.1490
      7 C         139.7790  141.1207  165.5549 C.2     1  UNL1        0.2488
      8 O         140.9415  141.5080  164.6898 O.2     1  UNL1       -0.2700
      9 N         138.4888  140.6845  164.9264 N.am    1  UNL1       -0.2999
     10 H         137.7258  140.4303  165.4943 H       1  UNL1        0.1498
     11 C         139.4403  140.0112  167.8797 C.ar    1  UNL1        0.1443
     12 C         139.5680  140.0601  169.3734 C.ar    1  UNL1        0.0520
     13 C         140.1621  141.2674  170.0362 C.ar    1  UNL1        0.0553
     14 N         140.2898  141.3163  171.5300 N.pl3   1  UNL1       -0.3563
     15 C         140.6285  142.4259  169.2053 C.ar    1  UNL1        0.0709
     16 CL        141.2226  143.6332  169.8681 Cl      1  UNL1       -0.0810
     17 C         140.5008  142.3769  167.7116 C.ar    1  UNL1        0.0202
     18 C         139.9067  141.1696  167.0488 C.ar    1  UNL1        0.0882
     19 H         139.9837  140.5560  172.0754 H       1  UNL1        0.1424
     20 H         140.6797  142.1087  171.9651 H       1  UNL1        0.1424
     21 C         137.4190  138.4276  167.4841 C.3     1  UNL1        0.2525
     22 O         138.8462  138.8038  167.2168 O.3     1  UNL1       -0.4712
     23 O         138.2693  143.2310  163.3556 O.3     1  UNL1       -0.3505
     24 C         138.1032  144.5018  162.5762 C.3     1  UNL1        0.1741
     25 C         137.9779  140.4890  158.9514 C.3     1  UNL1        0.0722
     26 C         138.6484  141.5317  158.1068 C.3     1  UNL1        0.0194
     27 C         137.8274  142.5831  157.4210 C.3     1  UNL1        0.0230
     28 C         138.4978  143.6257  156.5764 C.3     1  UNL1        0.0950
     29 N         139.9894  143.6169  156.4176 N.am    1  UNL1       -0.2640
     30 C         140.6599  144.6596  155.5730 C.2     1  UNL1        0.3073
     31 O         142.1515  144.6508  155.4142 O.2     1  UNL1       -0.2523
     32 N         139.8388  145.7110  154.8872 N.am    1  UNL1       -0.2605
     33 C         140.5093  146.7536  154.0425 C.3     1  UNL1        0.1165
     34 C         138.3473  145.7197  155.0459 C.3     1  UNL1        0.1165
     35 C         140.8105  142.5655  157.1034 C.3     1  UNL1        0.0950
     36 C         140.1400  141.5229  157.9481 C.3     1  UNL1        0.0230
@<TRIPOS>BOND
     1    21    22    1
     2    22    11    1
     3    11    12   ar
     4    12    13   ar
     5    13    14    1
     6    13    15   ar
     7    15    16    1
     8    15    17   ar
     9    17    18   ar
    10    18     7    1
    11     7     8    2
    12     7     9   am
    13     1     9    1
    14     1     2    1
    15     2     3    1
    16     3     4    1
    17     4    25    1
    18    25    26    1
    19    26    27    1
    20    27    28    1
    21    28    29    1
    22    29    30   am
    23    30    31    2
    24    30    32   am
    25    32    33    1
    26    32    34    1
    27    29    35    1
    28    35    36    1
    29     4     5    1
    30     5     6    1
    31     6    23    1
    32    23    24    1
    33    18    11   ar
    34     6     1    1
    35    36    26    1
    36    14    19    1
    37    14    20    1
    38     9    10    1
@<TRIPOS>MOLECULE
*****
 36 38 0 0 0
SMALL
GASTEIGER

@<TRIPOS>ATOM
      1 C         141.0239  138.9148  160.5000 C.3     1  UNL1        0.1017
      2 C         142.4038  138.6256  159.9878 C.3     1  UNL1        0.0394
      3 C         142.5924  138.1044  158.5939 C.3     1  UNL1        0.0739
      4 N         141.4012  137.8724  157.7123 N.3     1  UNL1       -0.2705
      5 C         140.0214  138.1615  158.2246 C.3     1  UNL1        0.1037
      6 C         139.8327  138.6827  159.6184 C.3     1  UNL1        0.1490
      7 C         140.8409  138.4879  163.0562 C.2     1  UNL1        0.2488
      8 O         141.0352  137.0187  162.8248 O.2     1  UNL1       -0.2700
      9 N         140.8352  139.4359  161.8938 N.am    1  UNL1       -0.2999
     10 H         140.7077  140.4002  162.0457 H       1  UNL1        0.1498
     11 C         139.3285  139.5803  164.8645 C.ar    1  UNL1        0.1443
     12 C         139.1399  140.1015  166.2583 C.ar    1  UNL1        0.0520
     13 C         140.2749  140.0515  167.2377 C.ar    1  UNL1        0.0553
     14 N         140.0862  140.5728  168.6315 N.pl3   1  UNL1       -0.3563
     15 C         141.5985  139.4804  166.8233 C.ar    1  UNL1        0.0709
     16 CL        142.7335  139.4305  167.8027 Cl      1  UNL1       -0.0810
     17 C         141.7872  138.9592  165.4295 C.ar    1  UNL1        0.0202
     18 C         140.6522  139.0091  164.4501 C.ar    1  UNL1        0.0882
     19 H         139.2174  140.9476  168.9035 H       1  UNL1        0.1424
     20 H         140.8311  140.5400  169.2744 H       1  UNL1        0.1424
     21 C         137.7215  140.9498  163.3506 C.3     1  UNL1        0.2525
     22 O         138.1935  139.6302  163.8850 O.3     1  UNL1       -0.4712
     23 O         138.4529  138.9719  160.1306 O.3     1  UNL1       -0.3505
     24 C         137.7331  140.2113  159.6883 C.3     1  UNL1        0.1741
     25 C         141.5899  137.3512  156.3185 C.3     1  UNL1        0.0722
     26 C         142.2110  136.0035  156.0994 C.3     1  UNL1        0.0194
     27 C         141.8945  135.2250  154.8570 C.3     1  UNL1        0.0230
     28 C         142.5155  133.8773  154.6378 C.3     1  UNL1        0.0950
     29 N         143.4531  133.3081  155.6611 N.am    1  UNL1       -0.2640
     30 C         144.0741  131.9604  155.4420 C.2     1  UNL1        0.3073
     31 O         145.0117  131.3913  156.4653 O.2     1  UNL1       -0.2523
     32 N         143.7576  131.1819  154.1996 N.am    1  UNL1       -0.2605
     33 C         144.3787  129.8342  153.9804 C.3     1  UNL1        0.1165
     34 C         142.8201  131.7510  153.1763 C.3     1  UNL1        0.1165
     35 C         143.7696  134.0867  156.9036 C.3     1  UNL1        0.0950
     36 C         143.1485  135.4344  157.1227 C.3     1  UNL1        0.0230
@<TRIPOS>BOND
     1    21    22    1
     2    22    11    1
     3    11    12   ar
     4    12    13   ar
     5    13    14    1
     6    13    15   ar
     7    15    16    1
     8    15    17   ar
     9    17    18   ar
    10    18     7    1
    11     7     8    2
    12     7     9   am
    13     1     9    1
    14     1     2    1
    15     2     3    1
    16     3     4    1
    17     4    25    1
    18    25    26    1
    19    26    27    1
    20    27    28    1
    21    28    29    1
    22    29    30   am
    23    30    31    2
    24    30    32   am
    25    32    33    1
    26    32    34    1
    27    29    35    1
    28    35    36    1
    29     4     5    1
    30     5     6    1
    31     6    23    1
    32    23    24    1
    33    18    11   ar
    34     6     1    1
    35    36    26    1
    36    14    19    1
    37    14    20    1
    38     9    10    1
@<TRIPOS>MOLECULE
*****
 36 38 0 0 0
SMALL
GASTEIGER

@<TRIPOS>ATOM
      1 C         140.5533  140.8298  162.6298 C.3     1  UNL1        0.1017
      2 C         141.6361  141.6677  162.0169 C.3     1  UNL1        0.0394
      3 C         141.9794  141.5053  160.5657 C.3     1  UNL1        0.0739
      4 N         141.2400  140.5050  159.7275 N.3     1  UNL1       -0.2705
      5 C         140.1573  139.6671  160.3404 C.3     1  UNL1        0.1037
      6 C         139.8139  139.8295  161.7915 C.3     1  UNL1        0.1490
      7 C         141.2500  140.7359  165.1309 C.2     1  UNL1        0.2488
      8 O         142.6334  140.3171  164.7299 O.2     1  UNL1       -0.2700
      9 N         140.2100  140.9923  164.0808 N.am    1  UNL1       -0.2999
     10 H         139.3020  141.2671  164.3441 H       1  UNL1        0.1498
     11 C         139.7873  140.0999  167.1818 C.ar    1  UNL1        0.1443
     12 C         139.4440  140.2624  168.6329 C.ar    1  UNL1        0.0520
     13 C         140.2198  141.2232  169.4842 C.ar    1  UNL1        0.0553
     14 N         139.8764  141.3857  170.9353 N.pl3   1  UNL1       -0.3563
     15 C         141.3391  142.0217  168.8844 C.ar    1  UNL1        0.0709
     16 CL        142.1150  142.9825  169.7357 Cl      1  UNL1       -0.0810
     17 C         141.6824  141.8592  167.4334 C.ar    1  UNL1        0.0202
     18 C         140.9066  140.8983  166.5821 C.ar    1  UNL1        0.0882
     19 H         139.1418  140.8616  171.3290 H       1  UNL1        0.1424
     20 H         140.3856  142.0163  171.4941 H       1  UNL1        0.1424
     21 C         137.7589  138.5083  166.8626 C.3     1  UNL1        0.2525
     22 O         139.0114  139.1390  166.3305 O.3     1  UNL1       -0.4712
     23 O         138.7312  138.9916  162.4043 O.3     1  UNL1       -0.3505
     24 C         139.0754  137.6951  163.0756 C.3     1  UNL1        0.1741
     25 C         141.5834  140.3425  158.2764 C.3     1  UNL1        0.0722
     26 C         141.6602  138.9715  157.6728 C.3     1  UNL1        0.0194
     27 C         142.5890  137.9471  158.2539 C.3     1  UNL1        0.0230
     28 C         142.6658  136.5761  157.6503 C.3     1  UNL1        0.0950
     29 N         141.8137  136.2295  156.4655 N.am    1  UNL1       -0.2640
     30 C         141.8905  134.8585  155.8618 C.2     1  UNL1        0.3073
     31 O         141.0384  134.5119  154.6769 O.2     1  UNL1       -0.2523
     32 N         142.8194  133.8340  156.4429 N.am    1  UNL1       -0.2605
     33 C         142.8962  132.4630  155.8393 C.3     1  UNL1        0.1165
     34 C         143.6714  134.1807  157.6278 C.3     1  UNL1        0.1165
     35 C         140.8848  137.2539  155.8842 C.3     1  UNL1        0.0950
     36 C         140.8080  138.6249  156.4879 C.3     1  UNL1        0.0230
@<TRIPOS>BOND
     1    21    22    1
     2    22    11    1
     3    11    12   ar
     4    12    13   ar
     5    13    14    1
     6    13    15   ar
     7    15    16    1
     8    15    17   ar
     9    17    18   ar
    10    18     7    1
    11     7     8    2
    12     7     9   am
    13     1     9    1
    14     1     2    1
    15     2     3    1
    16     3     4    1
    17     4    25    1
    18    25    26    1
    19    26    27    1
    20    27    28    1
    21    28    29    1
    22    29    30   am
    23    30    31    2
    24    30    32   am
    25    32    33    1
    26    32    34    1
    27    29    35    1
    28    35    36    1
    29     4     5    1
    30     5     6    1
    31     6    23    1
    32    23    24    1
    33    18    11   ar
    34     6     1    1
    35    36    26    1
    36    14    19    1
    37    14    20    1
    38     9    10    1
@<TRIPOS>MOLECULE
*****
 36 38 0 0 0
SMALL
GASTEIGER

@<TRIPOS>ATOM
      1 C         143.1772  141.8187  163.2517 C.3     1  UNL1        0.1017
      2 C         143.3989  143.2438  162.8396 C.3     1  UNL1        0.0394
      3 C         143.2351  143.6433  161.4030 C.3     1  UNL1        0.0739
      4 N         142.8496  142.6176  160.3786 N.3     1  UNL1       -0.2705
      5 C         142.6279  141.1925  160.7908 C.3     1  UNL1        0.1037
      6 C         142.7917  140.7930  162.2272 C.3     1  UNL1        0.1490
      7 C         142.3135  141.8271  165.7020 C.2     1  UNL1        0.2488
      8 O         141.1221  142.6345  165.2792 O.2     1  UNL1       -0.2700
      9 N         143.3410  141.4192  164.6882 N.am    1  UNL1       -0.2999
     10 H         144.1230  140.8892  164.9656 H       1  UNL1        0.1498
     11 C         142.4810  139.9763  167.5176 C.ar    1  UNL1        0.1443
     12 C         142.6449  139.5768  168.9541 C.ar    1  UNL1        0.0520
     13 C         142.8050  140.6286  170.0115 C.ar    1  UNL1        0.0553
     14 N         142.9689  140.2290  171.4480 N.pl3   1  UNL1       -0.3563
     15 C         142.8013  142.0799  169.6324 C.ar    1  UNL1        0.0709
     16 CL        142.9615  143.1317  170.6898 Cl      1  UNL1       -0.0810
     17 C         142.6375  142.4793  168.1959 C.ar    1  UNL1        0.0202
     18 C         142.4773  141.4275  167.1385 C.ar    1  UNL1        0.0882
     19 H         142.9713  139.2765  171.6968 H       1  UNL1        0.1424
     20 H         143.0740  140.9194  172.1420 H       1  UNL1        0.1424
     21 C         143.5015  138.1030  166.0345 C.3     1  UNL1        0.2525
     22 O         142.3208  138.9245  166.4602 O.3     1  UNL1       -0.4712
     23 O         142.5700  139.3679  162.6393 O.3     1  UNL1       -0.3505
     24 C         143.3864  138.2724  162.0201 C.3     1  UNL1        0.1741
     25 C         142.6858  143.0171  158.9422 C.3     1  UNL1        0.0722
     26 C         143.7800  142.7348  157.9557 C.3     1  UNL1        0.0194
     27 C         143.4498  142.5346  156.5063 C.3     1  UNL1        0.0230
     28 C         144.5440  142.2523  155.5199 C.3     1  UNL1        0.0950
     29 N         145.9684  142.1703  155.9828 N.am    1  UNL1       -0.2640
     30 C         147.0626  141.8880  154.9964 C.2     1  UNL1        0.3073
     31 O         148.4870  141.8059  155.4595 O.2     1  UNL1       -0.2523
     32 N         146.7324  141.6878  153.5470 N.am    1  UNL1       -0.2605
     33 C         147.8266  141.4055  152.5606 C.3     1  UNL1        0.1165
     34 C         145.3080  141.7699  153.0840 C.3     1  UNL1        0.1165
     35 C         146.2986  142.3705  157.4323 C.3     1  UNL1        0.0950
     36 C         145.2044  142.6528  158.4188 C.3     1  UNL1        0.0230
@<TRIPOS>BOND
     1    21    22    1
     2    22    11    1
     3    11    12   ar
     4    12    13   ar
     5    13    14    1
     6    13    15   ar
     7    15    16    1
     8    15    17   ar
     9    17    18   ar
    10    18     7    1
    11     7     8    2
    12     7     9   am
    13     1     9    1
    14     1     2    1
    15     2     3    1
    16     3     4    1
    17     4    25    1
    18    25    26    1
    19    26    27    1
    20    27    28    1
    21    28    29    1
    22    29    30   am
    23    30    31    2
    24    30    32   am
    25    32    33    1
    26    32    34    1
    27    29    35    1
    28    35    36    1
    29     4     5    1
    30     5     6    1
    31     6    23    1
    32    23    24    1
    33    18    11   ar
    34     6     1    1
    35    36    26    1
    36    14    19    1
    37    14    20    1
    38     9    10    1
