@<TRIPOS>MOLECULE
*****
 35 39 0 0 0
SMALL
GASTEIGER

@<TRIPOS>ATOM
      1 N         142.5991  139.4735  166.3055 N.3     1  UNL1       -0.2689
      2 C         141.7867  138.5211  165.4792 C.3     1  UNL1        0.0724
      3 C         141.9435  138.5003  163.9876 C.3     1  UNL1        0.0175
      4 C         142.9126  139.4320  163.3223 C.3     1  UNL1        0.0060
      5 C         143.7250  140.3845  164.1485 C.3     1  UNL1        0.0175
      6 C         143.5682  140.4053  165.6401 C.3     1  UNL1        0.0724
      7 C         142.1002  138.4795  162.4959 C.3     1  UNL1        0.0217
      8 C         142.2570  138.4588  161.0043 C.3     1  UNL1        0.0938
      9 N         143.2262  139.3905  160.3390 N.am    1  UNL1       -0.2748
     10 C         143.3829  139.3697  158.8473 C.2     1  UNL1        0.2669
     11 O         144.3521  140.3014  158.1819 O.2     1  UNL1       -0.2683
     12 C         144.0385  140.3430  161.1652 C.3     1  UNL1        0.0938
     13 C         143.8818  140.3637  162.6569 C.3     1  UNL1        0.0217
     14 C         142.5705  138.4172  158.0210 C.ar    1  UNL1        0.1380
     15 C         141.1544  138.7562  157.6609 C.ar    1  UNL1        0.0445
     16 C         140.3421  137.8038  156.8346 C.ar    1  UNL1        0.1024
     17 N         140.9458  136.5122  156.3684 N.ar    1  UNL1       -0.2224
     18 C         142.3619  136.1731  156.7284 C.ar    1  UNL1        0.1990
     19 N         143.1743  137.1257  157.5547 N.ar    1  UNL1       -0.2193
     20 C         142.4423  139.4943  167.7972 C.3     1  UNL1        0.1022
     21 C         140.7070  141.3213  168.4302 C.ar    1  UNL1        0.1427
     22 C         140.3676  142.6035  169.1309 C.ar    1  UNL1        0.0372
     23 C         141.4241  143.3407  169.8992 C.ar    1  UNL1        0.0031
     24 C         142.8200  142.7958  169.9668 C.ar    1  UNL1       -0.0001
     25 C         143.1594  141.5137  169.2662 C.ar    1  UNL1        0.0001
     26 C         142.1029  140.7764  168.4978 C.ar    1  UNL1        0.0284
     27 O         139.6505  140.5841  167.6619 O.3     1  UNL1       -0.4507
     28 C         138.4032  140.1206  165.4305 C.ar    1  UNL1        0.1730
     29 C         138.1811  140.4258  163.9787 C.ar    1  UNL1        0.0401
     30 C         138.9844  141.4995  163.3066 C.ar    1  UNL1        0.0033
     31 C         140.0098  142.2682  164.0863 C.ar    1  UNL1        0.0033
     32 C         140.2318  141.9630  165.5380 C.ar    1  UNL1        0.0406
     33 C         139.4285  140.8892  166.2101 C.ar    1  UNL1        0.1789
     34 C         138.1545  137.6582  166.2209 C.3     1  UNL1        0.2526
     35 O         137.5998  139.0468  166.1026 O.3     1  UNL1       -0.4684
@<TRIPOS>BOND
     1    34    35    1
     2    35    28    1
     3    28    29   ar
     4    29    30   ar
     5    30    31   ar
     6    31    32   ar
     7    32    33   ar
     8    33    27    1
     9    27    21    1
    10    21    22   ar
    11    22    23   ar
    12    23    24   ar
    13    24    25   ar
    14    25    26   ar
    15    26    20    1
    16    20     1    1
    17     1     2    1
    18     2     3    1
    19     3     4    1
    20     4     5    1
    21     5     6    1
    22     4     7    1
    23     7     8    1
    24     8     9    1
    25     9    10   am
    26    10    11    2
    27    10    14    1
    28    14    15   ar
    29    15    16   ar
    30    16    17   ar
    31    17    18   ar
    32    18    19   ar
    33     9    12    1
    34    12    13    1
    35    33    28   ar
    36    26    21   ar
    37     6     1    1
    38    19    14   ar
    39    13     4    1
@<TRIPOS>MOLECULE
*****
 35 39 0 0 0
SMALL
GASTEIGER

@<TRIPOS>ATOM
      1 N         142.2143  139.2179  165.8669 N.3     1  UNL1       -0.2689
      2 C         143.3534  139.0148  164.9123 C.3     1  UNL1        0.0724
      3 C         143.0821  138.8376  163.4478 C.3     1  UNL1        0.0175
      4 C         141.6717  138.8635  162.9378 C.3     1  UNL1        0.0060
      5 C         140.5326  139.0666  163.8923 C.3     1  UNL1        0.0175
      6 C         140.8040  139.2438  165.3569 C.3     1  UNL1        0.0724
      7 C         142.8108  138.6604  161.9832 C.3     1  UNL1        0.0217
      8 C         142.5395  138.4832  160.5186 C.3     1  UNL1        0.0938
      9 N         141.1291  138.5091  160.0086 N.am    1  UNL1       -0.2748
     10 C         140.8578  138.3319  158.5440 C.2     1  UNL1        0.2669
     11 O         139.4474  138.3578  158.0340 O.2     1  UNL1       -0.2683
     12 C         139.9900  138.7122  160.9632 C.3     1  UNL1        0.0938
     13 C         140.2613  138.8894  162.4278 C.3     1  UNL1        0.0217
     14 C         141.9969  138.1287  157.5894 C.ar    1  UNL1        0.1380
     15 C         142.4078  136.7406  157.1966 C.ar    1  UNL1        0.0445
     16 C         143.5469  136.5375  156.2421 C.ar    1  UNL1        0.1024
     17 N         144.2751  137.7226  155.6803 N.ar    1  UNL1       -0.2224
     18 C         143.8642  139.1107  156.0732 C.ar    1  UNL1        0.1990
     19 N         142.7251  139.3137  157.0278 N.ar    1  UNL1       -0.2193
     20 C         142.4856  139.3951  167.3315 C.3     1  UNL1        0.1022
     21 C         141.8317  141.8401  167.9183 C.ar    1  UNL1        0.1427
     22 C         141.0151  142.8096  168.7204 C.ar    1  UNL1        0.0372
     23 C         140.0360  142.3035  169.7378 C.ar    1  UNL1        0.0031
     24 C         139.8734  140.8280  169.9531 C.ar    1  UNL1       -0.0001
     25 C         140.6899  139.8585  169.1510 C.ar    1  UNL1        0.0001
     26 C         141.6691  140.3646  168.1336 C.ar    1  UNL1        0.0284
     27 O         142.8109  142.3462  166.9009 O.3     1  UNL1       -0.4507
     28 C         143.3953  142.4771  164.3728 C.ar    1  UNL1        0.1730
     29 C         142.9656  142.6679  162.9484 C.ar    1  UNL1        0.0401
     30 C         141.5219  142.9183  162.6276 C.ar    1  UNL1        0.0033
     31 C         140.5078  142.9781  163.7313 C.ar    1  UNL1        0.0033
     32 C         140.9374  142.7874  165.1557 C.ar    1  UNL1        0.0406
     33 C         142.3812  142.5369  165.4765 C.ar    1  UNL1        0.1789
     34 C         145.7530  141.6625  163.6465 C.3     1  UNL1        0.2526
     35 O         144.8390  142.2266  164.6936 O.3     1  UNL1       -0.4684
@<TRIPOS>BOND
     1    34    35    1
     2    35    28    1
     3    28    29   ar
     4    29    30   ar
     5    30    31   ar
     6    31    32   ar
     7    32    33   ar
     8    33    27    1
     9    27    21    1
    10    21    22   ar
    11    22    23   ar
    12    23    24   ar
    13    24    25   ar
    14    25    26   ar
    15    26    20    1
    16    20     1    1
    17     1     2    1
    18     2     3    1
    19     3     4    1
    20     4     5    1
    21     5     6    1
    22     4     7    1
    23     7     8    1
    24     8     9    1
    25     9    10   am
    26    10    11    2
    27    10    14    1
    28    14    15   ar
    29    15    16   ar
    30    16    17   ar
    31    17    18   ar
    32    18    19   ar
    33     9    12    1
    34    12    13    1
    35    33    28   ar
    36    26    21   ar
    37     6     1    1
    38    19    14   ar
    39    13     4    1
@<TRIPOS>MOLECULE
*****
 35 39 0 0 0
SMALL
GASTEIGER

@<TRIPOS>ATOM
      1 N         142.0206  140.4111  160.6490 N.3     1  UNL1       -0.2689
      2 C         141.0879  141.1962  161.5229 C.3     1  UNL1        0.0724
      3 C         141.1264  141.0176  163.0117 C.3     1  UNL1        0.0175
      4 C         142.0975  140.0539  163.6266 C.3     1  UNL1        0.0060
      5 C         143.0302  139.2688  162.7527 C.3     1  UNL1        0.0175
      6 C         142.9917  139.4474  161.2639 C.3     1  UNL1        0.0724
      7 C         141.1648  140.8390  164.5006 C.3     1  UNL1        0.0217
      8 C         141.2033  140.6605  165.9894 C.3     1  UNL1        0.0938
      9 N         142.1745  139.6967  166.6043 N.am    1  UNL1       -0.2748
     10 C         142.2129  139.5182  168.0932 C.2     1  UNL1        0.2669
     11 O         143.1840  138.5545  168.7081 O.2     1  UNL1       -0.2683
     12 C         143.1071  138.9116  165.7304 C.3     1  UNL1        0.0938
     13 C         143.0687  139.0902  164.2415 C.3     1  UNL1        0.0217
     14 C         141.2802  140.3033  168.9671 C.ar    1  UNL1        0.1380
     15 C         141.7425  141.5834  169.5977 C.ar    1  UNL1        0.0445
     16 C         140.8098  142.3685  170.4715 C.ar    1  UNL1        0.1024
     17 N         139.4148  141.8735  170.7148 N.ar    1  UNL1       -0.2224
     18 C         138.9526  140.5934  170.0842 C.ar    1  UNL1        0.1990
     19 N         139.8854  139.8083  169.2103 N.ar    1  UNL1       -0.2193
     20 C         141.9821  140.5897  159.1601 C.3     1  UNL1        0.1022
     21 C         143.9474  142.2346  158.7337 C.ar    1  UNL1        0.1427
     22 C         145.1976  142.5998  157.9895 C.ar    1  UNL1        0.0372
     23 C         145.7326  141.6852  156.9278 C.ar    1  UNL1        0.0031
     24 C         145.0175  140.4055  156.6101 C.ar    1  UNL1       -0.0001
     25 C         143.7673  140.0403  157.3542 C.ar    1  UNL1        0.0001
     26 C         143.2322  140.9549  158.4160 C.ar    1  UNL1        0.0284
     27 O         143.4123  143.1491  159.7954 O.3     1  UNL1       -0.4507
     28 C         143.3745  143.9466  162.2677 C.ar    1  UNL1        0.1730
     29 C         143.8900  143.8471  163.6728 C.ar    1  UNL1        0.0401
     30 C         144.9589  142.8505  164.0107 C.ar    1  UNL1        0.0033
     31 C         145.5123  141.9534  162.9435 C.ar    1  UNL1        0.0033
     32 C         144.9968  142.0529  161.5383 C.ar    1  UNL1        0.0406
     33 C         143.9279  143.0496  161.2005 C.ar    1  UNL1        0.1789
     34 C         140.9205  144.7731  162.4800 C.3     1  UNL1        0.2526
     35 O         142.3055  144.9433  161.9299 O.3     1  UNL1       -0.4684
@<TRIPOS>BOND
     1    34    35    1
     2    35    28    1
     3    28    29   ar
     4    29    30   ar
     5    30    31   ar
     6    31    32   ar
     7    32    33   ar
     8    33    27    1
     9    27    21    1
    10    21    22   ar
    11    22    23   ar
    12    23    24   ar
    13    24    25   ar
    14    25    26   ar
    15    26    20    1
    16    20     1    1
    17     1     2    1
    18     2     3    1
    19     3     4    1
    20     4     5    1
    21     5     6    1
    22     4     7    1
    23     7     8    1
    24     8     9    1
    25     9    10   am
    26    10    11    2
    27    10    14    1
    28    14    15   ar
    29    15    16   ar
    30    16    17   ar
    31    17    18   ar
    32    18    19   ar
    33     9    12    1
    34    12    13    1
    35    33    28   ar
    36    26    21   ar
    37     6     1    1
    38    19    14   ar
    39    13     4    1
@<TRIPOS>MOLECULE
*****
 35 39 0 0 0
SMALL
GASTEIGER

@<TRIPOS>ATOM
      1 N         142.6383  139.4822  166.3335 N.3     1  UNL1       -0.2689
      2 C         143.2908  140.5722  165.5360 C.3     1  UNL1        0.0724
      3 C         143.2876  140.5096  164.0373 C.3     1  UNL1        0.0175
      4 C         142.6320  139.3570  163.3362 C.3     1  UNL1        0.0060
      5 C         141.9795  138.2669  164.1337 C.3     1  UNL1        0.0175
      6 C         141.9827  138.3295  165.6323 C.3     1  UNL1        0.0724
      7 C         143.2844  140.4471  162.5386 C.3     1  UNL1        0.0217
      8 C         143.2813  140.3845  161.0399 C.3     1  UNL1        0.0938
      9 N         142.6257  139.2319  160.3388 N.am    1  UNL1       -0.2748
     10 C         142.6225  139.1693  158.8400 C.2     1  UNL1        0.2669
     11 O         141.9669  138.0167  158.1389 O.2     1  UNL1       -0.2683
     12 C         141.9732  138.1418  161.1363 C.3     1  UNL1        0.0938
     13 C         141.9764  138.2044  162.6350 C.3     1  UNL1        0.0217
     14 C         143.2750  140.2593  158.0425 C.ar    1  UNL1        0.1380
     15 C         142.4967  141.4876  157.6739 C.ar    1  UNL1        0.0445
     16 C         143.1492  142.5776  156.8764 C.ar    1  UNL1        0.1024
     17 N         144.5799  142.4395  156.4474 N.ar    1  UNL1       -0.2224
     18 C         145.3582  141.2113  156.8160 C.ar    1  UNL1        0.1990
     19 N         144.7056  140.1212  157.6136 N.ar    1  UNL1       -0.2193
     20 C         142.6415  139.5447  167.8322 C.3     1  UNL1        0.1022
     21 C         140.7950  141.2611  168.4603 C.ar    1  UNL1        0.1427
     22 C         140.3754  142.5203  169.1593 C.ar    1  UNL1        0.0372
     23 C         141.3826  143.3220  169.9292 C.ar    1  UNL1        0.0031
     24 C         142.8094  142.8646  170.0002 C.ar    1  UNL1       -0.0001
     25 C         143.2290  141.6056  169.3012 C.ar    1  UNL1        0.0001
     26 C         142.2218  140.8038  168.5312 C.ar    1  UNL1        0.0284
     27 O         139.7878  140.4594  167.6904 O.3     1  UNL1       -0.4507
     28 C         138.5019  139.9886  165.4826 C.ar    1  UNL1        0.1730
     29 C         138.1715  140.3595  164.0672 C.ar    1  UNL1        0.0401
     30 C         138.7968  141.5724  163.4443 C.ar    1  UNL1        0.0033
     31 C         139.7525  142.4143  164.2367 C.ar    1  UNL1        0.0033
     32 C         140.0828  142.0433  165.6521 C.ar    1  UNL1        0.0406
     33 C         139.4575  140.8304  166.2750 C.ar    1  UNL1        0.1789
     34 C         138.3924  137.4084  165.7672 C.3     1  UNL1        0.2526
     35 O         137.8765  138.7757  166.1055 O.3     1  UNL1       -0.4684
@<TRIPOS>BOND
     1    34    35    1
     2    35    28    1
     3    28    29   ar
     4    29    30   ar
     5    30    31   ar
     6    31    32   ar
     7    32    33   ar
     8    33    27    1
     9    27    21    1
    10    21    22   ar
    11    22    23   ar
    12    23    24   ar
    13    24    25   ar
    14    25    26   ar
    15    26    20    1
    16    20     1    1
    17     1     2    1
    18     2     3    1
    19     3     4    1
    20     4     5    1
    21     5     6    1
    22     4     7    1
    23     7     8    1
    24     8     9    1
    25     9    10   am
    26    10    11    2
    27    10    14    1
    28    14    15   ar
    29    15    16   ar
    30    16    17   ar
    31    17    18   ar
    32    18    19   ar
    33     9    12    1
    34    12    13    1
    35    33    28   ar
    36    26    21   ar
    37     6     1    1
    38    19    14   ar
    39    13     4    1
@<TRIPOS>MOLECULE
*****
 35 39 0 0 0
SMALL
GASTEIGER

@<TRIPOS>ATOM
      1 N         141.6817  143.9773  161.6443 N.3     1  UNL1       -0.2689
      2 C         141.0696  144.4099  162.9436 C.3     1  UNL1        0.0724
      3 C         141.2512  143.5715  164.1740 C.3     1  UNL1        0.0175
      4 C         142.0448  142.3005  164.1051 C.3     1  UNL1        0.0060
      5 C         142.6568  141.8679  162.8058 C.3     1  UNL1        0.0175
      6 C         142.4753  142.7063  161.5754 C.3     1  UNL1        0.0724
      7 C         141.4327  142.7330  165.4045 C.3     1  UNL1        0.0217
      8 C         141.6143  141.8946  166.6350 C.3     1  UNL1        0.0938
      9 N         142.4079  140.6236  166.5661 N.am    1  UNL1       -0.2748
     10 C         142.5895  139.7851  167.7966 C.2     1  UNL1        0.2669
     11 O         143.3831  138.5141  167.7277 O.2     1  UNL1       -0.2683
     12 C         143.0199  140.1910  165.2668 C.3     1  UNL1        0.0938
     13 C         142.8384  141.0295  164.0363 C.3     1  UNL1        0.0217
     14 C         141.9774  140.2177  169.0959 C.ar    1  UNL1        0.1380
     15 C         142.6961  141.1991  169.9736 C.ar    1  UNL1        0.0445
     16 C         142.0841  141.6316  171.2729 C.ar    1  UNL1        0.1024
     17 N         140.7533  141.0828  171.6946 N.ar    1  UNL1       -0.2224
     18 C         140.0346  140.1014  170.8169 C.ar    1  UNL1        0.1990
     19 N         140.6467  139.6688  169.5176 N.ar    1  UNL1       -0.2193
     20 C         141.5001  144.8158  160.4137 C.3     1  UNL1        0.1022
     21 C         139.6342  143.5594  159.1138 C.ar    1  UNL1        0.1427
     22 C         139.1289  142.9336  157.8476 C.ar    1  UNL1        0.0372
     23 C         139.9842  142.9385  156.6154 C.ar    1  UNL1        0.0031
     24 C         141.3447  143.5692  156.6492 C.ar    1  UNL1       -0.0001
     25 C         141.8500  144.1949  157.9153 C.ar    1  UNL1        0.0001
     26 C         140.9948  144.1900  159.1477 C.ar    1  UNL1        0.0284
     27 O         138.7790  143.5545  160.3461 O.3     1  UNL1       -0.4507
     28 C         138.1142  142.4335  162.5936 C.ar    1  UNL1        0.1730
     29 C         138.1003  141.2324  163.4921 C.ar    1  UNL1        0.0401
     30 C         138.7371  139.9513  163.0415 C.ar    1  UNL1        0.0033
     31 C         139.3879  139.8711  161.6924 C.ar    1  UNL1        0.0033
     32 C         139.4019  141.0722  160.7939 C.ar    1  UNL1        0.0406
     33 C         138.7650  142.3534  161.2445 C.ar    1  UNL1        0.1789
     34 C         137.6933  144.2077  164.4444 C.3     1  UNL1        0.2526
     35 O         137.4774  143.7147  163.0443 O.3     1  UNL1       -0.4684
@<TRIPOS>BOND
     1    34    35    1
     2    35    28    1
     3    28    29   ar
     4    29    30   ar
     5    30    31   ar
     6    31    32   ar
     7    32    33   ar
     8    33    27    1
     9    27    21    1
    10    21    22   ar
    11    22    23   ar
    12    23    24   ar
    13    24    25   ar
    14    25    26   ar
    15    26    20    1
    16    20     1    1
    17     1     2    1
    18     2     3    1
    19     3     4    1
    20     4     5    1
    21     5     6    1
    22     4     7    1
    23     7     8    1
    24     8     9    1
    25     9    10   am
    26    10    11    2
    27    10    14    1
    28    14    15   ar
    29    15    16   ar
    30    16    17   ar
    31    17    18   ar
    32    18    19   ar
    33     9    12    1
    34    12    13    1
    35    33    28   ar
    36    26    21   ar
    37     6     1    1
    38    19    14   ar
    39    13     4    1
@<TRIPOS>MOLECULE
*****
 35 39 0 0 0
SMALL
GASTEIGER

@<TRIPOS>ATOM
      1 N         140.3608  140.0682  161.3860 N.3     1  UNL1       -0.2689
      2 C         141.2813  140.7549  162.3508 C.3     1  UNL1        0.0724
      3 C         140.9911  140.7153  163.8219 C.3     1  UNL1        0.0175
      4 C         139.7802  139.9889  164.3282 C.3     1  UNL1        0.0060
      5 C         138.8596  139.3022  163.3634 C.3     1  UNL1        0.0175
      6 C         139.1499  139.3418  161.8923 C.3     1  UNL1        0.0724
      7 C         140.7008  140.6757  165.2931 C.3     1  UNL1        0.0217
      8 C         140.4105  140.6361  166.7642 C.3     1  UNL1        0.0938
      9 N         139.1997  139.9097  167.2704 N.am    1  UNL1       -0.2748
     10 C         138.9094  139.8701  168.7416 C.2     1  UNL1        0.2669
     11 O         137.6986  139.1438  169.2479 O.2     1  UNL1       -0.2683
     12 C         138.2791  139.2230  166.3056 C.3     1  UNL1        0.0938
     13 C         138.5694  139.2626  164.8344 C.3     1  UNL1        0.0217
     14 C         139.8300  140.5569  169.7064 C.ar    1  UNL1        0.1380
     15 C         141.1187  139.9029  170.1082 C.ar    1  UNL1        0.0445
     16 C         142.0393  140.5896  171.0731 C.ar    1  UNL1        0.1024
     17 N         141.6711  141.9304  171.6361 N.ar    1  UNL1       -0.2224
     18 C         140.3824  142.5843  171.2343 C.ar    1  UNL1        0.1990
     19 N         139.4618  141.8975  170.2694 N.ar    1  UNL1       -0.2193
     20 C         140.6510  140.1077  159.9149 C.3     1  UNL1        0.1022
     21 C         139.4477  142.2405  159.0470 C.ar    1  UNL1        0.1427
     22 C         138.4766  142.8931  158.1082 C.ar    1  UNL1        0.0372
     23 C         137.7380  142.0655  157.0986 C.ar    1  UNL1        0.0031
     24 C         137.9703  140.5853  157.0277 C.ar    1  UNL1       -0.0001
     25 C         138.9413  139.9327  157.9664 C.ar    1  UNL1        0.0001
     26 C         139.6800  140.7603  158.9761 C.ar    1  UNL1        0.0284
     27 O         140.1863  143.0681  160.0567 O.3     1  UNL1       -0.4507
     28 C         140.1870  144.4091  162.2820 C.ar    1  UNL1        0.1730
     29 C         139.5289  144.7720  163.5801 C.ar    1  UNL1        0.0401
     30 C         138.2121  144.1570  163.9512 C.ar    1  UNL1        0.0033
     31 C         137.5533  143.1790  163.0240 C.ar    1  UNL1        0.0033
     32 C         138.2114  142.8160  161.7259 C.ar    1  UNL1        0.0406
     33 C         139.5283  143.4311  161.3548 C.ar    1  UNL1        0.1789
     34 C         142.7772  144.4675  162.4754 C.3     1  UNL1        0.2526
     35 O         141.5039  145.0241  161.9109 O.3     1  UNL1       -0.4684
@<TRIPOS>BOND
     1    34    35    1
     2    35    28    1
     3    28    29   ar
     4    29    30   ar
     5    30    31   ar
     6    31    32   ar
     7    32    33   ar
     8    33    27    1
     9    27    21    1
    10    21    22   ar
    11    22    23   ar
    12    23    24   ar
    13    24    25   ar
    14    25    26   ar
    15    26    20    1
    16    20     1    1
    17     1     2    1
    18     2     3    1
    19     3     4    1
    20     4     5    1
    21     5     6    1
    22     4     7    1
    23     7     8    1
    24     8     9    1
    25     9    10   am
    26    10    11    2
    27    10    14    1
    28    14    15   ar
    29    15    16   ar
    30    16    17   ar
    31    17    18   ar
    32    18    19   ar
    33     9    12    1
    34    12    13    1
    35    33    28   ar
    36    26    21   ar
    37     6     1    1
    38    19    14   ar
    39    13     4    1
@<TRIPOS>MOLECULE
*****
 35 39 0 0 0
SMALL
GASTEIGER

@<TRIPOS>ATOM
      1 N         142.2893  140.4847  161.3014 N.3     1  UNL1       -0.2689
      2 C         141.6637  141.4544  162.2595 C.3     1  UNL1        0.0724
      3 C         141.7361  141.2020  163.7363 C.3     1  UNL1        0.0175
      4 C         142.4342  139.9798  164.2549 C.3     1  UNL1        0.0060
      5 C         143.0598  139.0101  163.2967 C.3     1  UNL1        0.0175
      6 C         142.9873  139.2625  161.8200 C.3     1  UNL1        0.0724
      7 C         141.8086  140.9496  165.2132 C.3     1  UNL1        0.0217
      8 C         141.8810  140.6971  166.6900 C.3     1  UNL1        0.0938
      9 N         142.5791  139.4749  167.2086 N.am    1  UNL1       -0.2748
     10 C         142.6516  139.2225  168.6855 C.2     1  UNL1        0.2669
     11 O         143.3497  138.0003  169.2041 O.2     1  UNL1       -0.2683
     12 C         143.2047  138.5052  166.2504 C.3     1  UNL1        0.0938
     13 C         143.1323  138.7576  164.7735 C.3     1  UNL1        0.0217
     14 C         142.0260  140.1922  169.6437 C.ar    1  UNL1        0.1380
     15 C         140.6272  139.9643  170.1352 C.ar    1  UNL1        0.0445
     16 C         140.0016  140.9341  171.0934 C.ar    1  UNL1        0.1024
     17 N         140.7748  142.1318  171.5601 N.ar    1  UNL1       -0.2224
     18 C         142.1735  142.3597  171.0686 C.ar    1  UNL1        0.1990
     19 N         142.7991  141.3899  170.1104 N.ar    1  UNL1       -0.2193
     20 C         142.2168  140.7371  159.8245 C.3     1  UNL1        0.1022
     21 C         140.4117  139.1723  158.8032 C.ar    1  UNL1        0.1427
     22 C         140.0339  138.0604  157.8699 C.ar    1  UNL1        0.0372
     23 C         141.0834  137.4015  157.0246 C.ar    1  UNL1        0.0031
     24 C         142.5106  137.8545  157.1126 C.ar    1  UNL1       -0.0001
     25 C         142.8884  138.9663  158.0459 C.ar    1  UNL1        0.0001
     26 C         141.8390  139.6253  158.8912 C.ar    1  UNL1        0.0284
     27 O         139.3623  139.8312  159.6485 O.3     1  UNL1       -0.4507
     28 C         138.3859  140.2560  162.0183 C.ar    1  UNL1        0.1730
     29 C         138.1774  139.8125  163.4360 C.ar    1  UNL1        0.0401
     30 C         138.7366  138.5008  163.9015 C.ar    1  UNL1        0.0033
     31 C         139.5044  137.6326  162.9493 C.ar    1  UNL1        0.0033
     32 C         139.7130  138.0760  161.5317 C.ar    1  UNL1        0.0406
     33 C         139.1537  139.3878  161.0662 C.ar    1  UNL1        0.1789
     34 C         137.8358  142.7547  162.4698 C.3     1  UNL1        0.2526
     35 O         137.8266  141.5677  161.5528 O.3     1  UNL1       -0.4684
@<TRIPOS>BOND
     1    34    35    1
     2    35    28    1
     3    28    29   ar
     4    29    30   ar
     5    30    31   ar
     6    31    32   ar
     7    32    33   ar
     8    33    27    1
     9    27    21    1
    10    21    22   ar
    11    22    23   ar
    12    23    24   ar
    13    24    25   ar
    14    25    26   ar
    15    26    20    1
    16    20     1    1
    17     1     2    1
    18     2     3    1
    19     3     4    1
    20     4     5    1
    21     5     6    1
    22     4     7    1
    23     7     8    1
    24     8     9    1
    25     9    10   am
    26    10    11    2
    27    10    14    1
    28    14    15   ar
    29    15    16   ar
    30    16    17   ar
    31    17    18   ar
    32    18    19   ar
    33     9    12    1
    34    12    13    1
    35    33    28   ar
    36    26    21   ar
    37     6     1    1
    38    19    14   ar
    39    13     4    1
@<TRIPOS>MOLECULE
*****
 35 39 0 0 0
SMALL
GASTEIGER

@<TRIPOS>ATOM
      1 N         139.6667  139.8395  166.2948 N.3     1  UNL1       -0.2689
      2 C         140.9220  139.4396  165.5777 C.3     1  UNL1        0.0724
      3 C         140.9333  139.3466  164.0806 C.3     1  UNL1        0.0175
      4 C         139.6893  139.6535  163.3007 C.3     1  UNL1        0.0060
      5 C         138.4340  140.0534  164.0178 C.3     1  UNL1        0.0175
      6 C         138.4227  140.1464  165.5148 C.3     1  UNL1        0.0724
      7 C         140.9447  139.2536  162.5835 C.3     1  UNL1        0.0217
      8 C         140.9560  139.1606  161.0865 C.3     1  UNL1        0.0938
      9 N         139.7120  139.4675  160.3065 N.am    1  UNL1       -0.2748
     10 C         139.7233  139.3745  158.8094 C.2     1  UNL1        0.2669
     11 O         138.4794  139.6814  158.0295 O.2     1  UNL1       -0.2683
     12 C         138.4567  139.8674  161.0236 C.3     1  UNL1        0.0938
     13 C         138.4453  139.9604  162.5208 C.3     1  UNL1        0.0217
     14 C         140.9786  138.9746  158.0923 C.ar    1  UNL1        0.1380
     15 C         141.1231  137.5826  157.5526 C.ar    1  UNL1        0.0445
     16 C         142.3784  137.1827  156.8355 C.ar    1  UNL1        0.1024
     17 N         143.4893  138.1749  156.6581 N.ar    1  UNL1       -0.2224
     18 C         143.3449  139.5670  157.1978 C.ar    1  UNL1        0.1990
     19 N         142.0895  139.9668  157.9149 N.ar    1  UNL1       -0.2193
     20 C         139.6553  139.9325  167.7919 C.3     1  UNL1        0.1022
     21 C         141.3211  141.8673  168.2734 C.ar    1  UNL1        0.1427
     22 C         142.5208  142.3977  169.0011 C.ar    1  UNL1        0.0372
     23 C         143.2543  141.5238  169.9748 C.ar    1  UNL1        0.0031
     24 C         142.7882  140.1194  170.2209 C.ar    1  UNL1       -0.0001
     25 C         141.5886  139.5890  169.4933 C.ar    1  UNL1        0.0001
     26 C         140.8550  140.4629  168.5195 C.ar    1  UNL1        0.0284
     27 O         140.5876  142.7412  167.2996 O.3     1  UNL1       -0.4507
     28 C         140.1497  143.3314  164.8077 C.ar    1  UNL1        0.1730
     29 C         140.6439  143.4621  163.3975 C.ar    1  UNL1        0.0401
     30 C         142.0700  143.1334  163.0690 C.ar    1  UNL1        0.0033
     31 C         143.0022  142.6740  164.1507 C.ar    1  UNL1        0.0033
     32 C         142.5080  142.5432  165.5610 C.ar    1  UNL1        0.0406
     33 C         141.0818  142.8719  165.8894 C.ar    1  UNL1        0.1789
     34 C         137.6997  143.7337  164.0423 C.3     1  UNL1        0.2526
     35 O         138.7235  143.6601  165.1362 O.3     1  UNL1       -0.4684
@<TRIPOS>BOND
     1    34    35    1
     2    35    28    1
     3    28    29   ar
     4    29    30   ar
     5    30    31   ar
     6    31    32   ar
     7    32    33   ar
     8    33    27    1
     9    27    21    1
    10    21    22   ar
    11    22    23   ar
    12    23    24   ar
    13    24    25   ar
    14    25    26   ar
    15    26    20    1
    16    20     1    1
    17     1     2    1
    18     2     3    1
    19     3     4    1
    20     4     5    1
    21     5     6    1
    22     4     7    1
    23     7     8    1
    24     8     9    1
    25     9    10   am
    26    10    11    2
    27    10    14    1
    28    14    15   ar
    29    15    16   ar
    30    16    17   ar
    31    17    18   ar
    32    18    19   ar
    33     9    12    1
    34    12    13    1
    35    33    28   ar
    36    26    21   ar
    37     6     1    1
    38    19    14   ar
    39    13     4    1
@<TRIPOS>MOLECULE
*****
 35 39 0 0 0
SMALL
GASTEIGER

@<TRIPOS>ATOM
      1 N         138.9624  141.6097  160.1414 N.3     1  UNL1       -0.2689
      2 C         138.4016  140.3405  159.5715 C.3     1  UNL1        0.0724
      3 C         139.2747  139.4356  158.7538 C.3     1  UNL1        0.0175
      4 C         140.7086  139.7998  158.5058 C.3     1  UNL1        0.0060
      5 C         141.2693  141.0690  159.0757 C.3     1  UNL1        0.0175
      6 C         140.3962  141.9739  159.8934 C.3     1  UNL1        0.0724
      7 C         140.1478  138.5306  157.9359 C.3     1  UNL1        0.0217
      8 C         141.0209  137.6257  157.1182 C.3     1  UNL1        0.0938
      9 N         142.4547  137.9899  156.8702 N.am    1  UNL1       -0.2748
     10 C         143.3278  137.0849  156.0524 C.2     1  UNL1        0.2669
     11 O         144.7617  137.4491  155.8045 O.2     1  UNL1       -0.2683
     12 C         143.0155  139.2591  157.4401 C.3     1  UNL1        0.0938
     13 C         142.1424  140.1641  158.2579 C.3     1  UNL1        0.0217
     14 C         142.7671  135.8158  155.4826 C.ar    1  UNL1        0.1380
     15 C         142.3050  135.7740  154.0561 C.ar    1  UNL1        0.0445
     16 C         141.7442  134.5048  153.4863 C.ar    1  UNL1        0.1024
     17 N         141.6456  133.2774  154.3429 N.ar    1  UNL1       -0.2224
     18 C         142.1077  133.3191  155.7693 C.ar    1  UNL1        0.1990
     19 N         142.6685  134.5884  156.3391 N.ar    1  UNL1       -0.2193
     20 C         138.0893  142.5147  160.9592 C.3     1  UNL1        0.1022
     21 C         138.5541  141.8751  163.4340 C.ar    1  UNL1        0.1427
     22 C         138.9706  142.2669  164.8208 C.ar    1  UNL1        0.0372
     23 C         139.3387  143.6900  165.1194 C.ar    1  UNL1        0.0031
     24 C         139.2903  144.7214  164.0313 C.ar    1  UNL1       -0.0001
     25 C         138.8739  144.3296  162.6446 C.ar    1  UNL1        0.0001
     26 C         138.5058  142.9064  162.3459 C.ar    1  UNL1        0.0284
     27 O         138.1860  140.4520  163.1354 O.3     1  UNL1       -0.4507
     28 C         139.1286  138.5090  164.5798 C.ar    1  UNL1        0.1730
     29 C         140.1331  137.4148  164.7889 C.ar    1  UNL1        0.0401
     30 C         141.1994  137.1693  163.7629 C.ar    1  UNL1        0.0033
     31 C         141.2612  138.0181  162.5277 C.ar    1  UNL1        0.0033
     32 C         140.2568  139.1123  162.3185 C.ar    1  UNL1        0.0406
     33 C         139.1905  139.3577  163.3446 C.ar    1  UNL1        0.1789
     34 C         138.4397  139.1958  166.9889 C.3     1  UNL1        0.2526
     35 O         138.0623  138.7544  165.6059 O.3     1  UNL1       -0.4684
@<TRIPOS>BOND
     1    34    35    1
     2    35    28    1
     3    28    29   ar
     4    29    30   ar
     5    30    31   ar
     6    31    32   ar
     7    32    33   ar
     8    33    27    1
     9    27    21    1
    10    21    22   ar
    11    22    23   ar
    12    23    24   ar
    13    24    25   ar
    14    25    26   ar
    15    26    20    1
    16    20     1    1
    17     1     2    1
    18     2     3    1
    19     3     4    1
    20     4     5    1
    21     5     6    1
    22     4     7    1
    23     7     8    1
    24     8     9    1
    25     9    10   am
    26    10    11    2
    27    10    14    1
    28    14    15   ar
    29    15    16   ar
    30    16    17   ar
    31    17    18   ar
    32    18    19   ar
    33     9    12    1
    34    12    13    1
    35    33    28   ar
    36    26    21   ar
    37     6     1    1
    38    19    14   ar
    39    13     4    1
