@<TRIPOS>MOLECULE
*****
 41 44 0 0 0
SMALL
GASTEIGER

@<TRIPOS>ATOM
      1 C         144.2585  141.5764  163.5117 C.3     1  UNL1        0.1017
      2 C         144.4568  142.9937  163.0622 C.3     1  UNL1        0.0394
      3 C         144.5554  143.3096  161.5991 C.3     1  UNL1        0.0740
      4 N         144.4558  142.2083  160.5856 N.3     1  UNL1       -0.2701
      5 C         144.2575  140.7911  161.0351 C.3     1  UNL1        0.1037
      6 C         144.1588  140.4751  162.4981 C.3     1  UNL1        0.1490
      7 C         142.9473  141.6789  165.7523 C.2     1  UNL1        0.2488
      8 O         141.8334  142.4134  165.0669 O.2     1  UNL1       -0.2700
      9 N         144.1598  141.2604  164.9747 N.am    1  UNL1       -0.2999
     10 H         144.8909  140.7784  165.4245 H       1  UNL1        0.1498
     11 C         142.6671  139.9437  167.6655 C.ar    1  UNL1        0.1443
     12 C         142.5684  139.6277  169.1285 C.ar    1  UNL1        0.0520
     13 C         142.6515  140.7310  170.1413 C.ar    1  UNL1        0.0553
     14 N         142.5528  140.4150  171.6044 N.pl3   1  UNL1       -0.3563
     15 C         142.8331  142.1503  169.6912 C.ar    1  UNL1        0.0709
     16 CL        142.9161  143.2536  170.7040 Cl      1  UNL1       -0.0810
     17 C         142.9317  142.4662  168.2282 C.ar    1  UNL1        0.0202
     18 C         142.8487  141.3629  167.2153 C.ar    1  UNL1        0.0882
     19 H         142.4336  139.4835  171.8998 H       1  UNL1        0.1424
     20 H         142.6073  141.1391  172.2692 H       1  UNL1        0.1424
     21 C         143.7861  137.9884  166.3714 C.3     1  UNL1        0.2525
     22 O         142.5840  138.8403  166.6527 O.3     1  UNL1       -0.4712
     23 O         143.9605  139.0578  162.9476 O.3     1  UNL1       -0.3505
     24 C         143.3818  138.0457  162.0039 C.3     1  UNL1        0.1741
     25 C         144.5544  142.5243  159.1226 C.3     1  UNL1        0.0818
     26 C         143.3178  142.8598  158.3427 C.3     1  UNL1        0.1026
     27 C         142.2004  143.6165  158.9976 C.2     1  UNL1        0.2270
     28 O         142.1774  145.1154  158.9443 O.2     1  UNL1       -0.2748
     29 N         141.1060  142.8744  159.7056 N.am    1  UNL1       -0.2795
     30 C         141.1290  141.3754  159.7589 C.3     1  UNL1        0.0934
     31 C         140.0345  140.6332  160.4670 C.3     1  UNL1        0.0219
     32 C         138.9171  141.3900  161.1218 C.3     1  UNL1        0.0078
     33 C         138.8941  142.8888  161.0686 C.3     1  UNL1        0.0219
     34 C         139.9886  143.6310  160.3605 C.3     1  UNL1        0.0934
     35 C         137.8227  140.6478  161.8299 C.3     1  UNL1        0.0265
     36 C         138.1298  139.8631  163.0709 C.ar    1  UNL1       -0.0222
     37 C         138.5613  138.4304  162.9647 C.ar    1  UNL1       -0.0043
     38 C         138.8684  137.6458  164.2056 C.ar    1  UNL1       -0.0003
     39 C         138.7440  138.2937  165.5527 C.ar    1  UNL1       -0.0000
     40 C         138.3125  139.7264  165.6589 C.ar    1  UNL1       -0.0003
     41 C         138.0054  140.5110  164.4180 C.ar    1  UNL1       -0.0043
@<TRIPOS>BOND
     1    21    22    1
     2    22    11    1
     3    11    12   ar
     4    12    13   ar
     5    13    14    1
     6    13    15   ar
     7    15    16    1
     8    15    17   ar
     9    17    18   ar
    10    18     7    1
    11     7     8    2
    12     7     9   am
    13     1     9    1
    14     1     2    1
    15     2     3    1
    16     3     4    1
    17     4    25    1
    18    25    26    1
    19    26    27    1
    20    27    28    2
    21    27    29   am
    22    29    30    1
    23    30    31    1
    24    31    32    1
    25    32    35    1
    26    35    36    1
    27    36    37   ar
    28    37    38   ar
    29    38    39   ar
    30    39    40   ar
    31    40    41   ar
    32    32    33    1
    33    33    34    1
    34     4     5    1
    35     5     6    1
    36     6    23    1
    37    23    24    1
    38    18    11   ar
    39     6     1    1
    40    34    29    1
    41    41    36   ar
    42    14    19    1
    43    14    20    1
    44     9    10    1
@<TRIPOS>MOLECULE
*****
 41 44 0 0 0
SMALL
GASTEIGER

@<TRIPOS>ATOM
      1 C         138.7145  140.8058  164.3035 C.3     1  UNL1        0.1017
      2 C         138.1666  141.9062  163.4438 C.3     1  UNL1        0.0394
      3 C         137.6386  141.5960  162.0745 C.3     1  UNL1        0.0740
      4 N         137.6585  140.1854  161.5648 N.3     1  UNL1       -0.2701
      5 C         138.2064  139.0850  162.4244 C.3     1  UNL1        0.1037
      6 C         138.7344  139.3951  163.7937 C.3     1  UNL1        0.1490
      7 C         140.5914  141.7526  165.8300 C.2     1  UNL1        0.2488
      8 O         141.4125  142.0792  164.6179 O.2     1  UNL1       -0.2700
      9 N         139.2424  141.1159  165.6727 N.am    1  UNL1       -0.2999
     10 H         138.7035  140.9016  166.4683 H       1  UNL1        0.1498
     11 C         142.3615  141.3841  167.6958 C.ar    1  UNL1        0.1443
     12 C         142.8893  141.6942  169.0651 C.ar    1  UNL1        0.0520
     13 C         142.1751  142.6831  169.9380 C.ar    1  UNL1        0.0553
     14 N         142.7030  142.9933  171.3074 N.pl3   1  UNL1       -0.3563
     15 C         140.9330  143.3618  169.4416 C.ar    1  UNL1        0.0709
     16 CL        140.2188  144.3507  170.3145 Cl      1  UNL1       -0.0810
     17 C         140.4051  143.0517  168.0723 C.ar    1  UNL1        0.0202
     18 C         141.1194  142.0628  167.1994 C.ar    1  UNL1        0.0882
     19 H         143.5183  142.5478  171.6333 H       1  UNL1        0.1424
     20 H         142.2343  143.6423  171.8804 H       1  UNL1        0.1424
     21 C         143.0507  138.9355  167.1673 C.3     1  UNL1        0.2525
     22 O         143.0757  140.3952  166.8229 O.3     1  UNL1       -0.4712
     23 O         139.2822  138.2947  164.6533 O.3     1  UNL1       -0.3505
     24 C         140.7081  137.8575  164.4936 C.3     1  UNL1        0.1741
     25 C         137.1306  139.8752  160.1955 C.3     1  UNL1        0.0818
     26 C         137.9239  140.2580  158.9813 C.3     1  UNL1        0.1026
     27 C         139.3076  139.7123  158.7868 C.2     1  UNL1        0.2270
     28 O         139.5039  138.3927  158.1013 O.2     1  UNL1       -0.2748
     29 N         140.4949  140.4863  159.2778 N.am    1  UNL1       -0.2795
     30 C         140.2986  141.8060  159.9634 C.3     1  UNL1        0.0934
     31 C         141.4859  142.5801  160.4544 C.3     1  UNL1        0.0219
     32 C         142.8696  142.0344  160.2599 C.3     1  UNL1        0.0078
     33 C         143.0659  140.7148  159.5744 C.3     1  UNL1        0.0219
     34 C         141.8785  139.9407  159.0834 C.3     1  UNL1        0.0934
     35 C         144.0569  142.8084  160.7509 C.3     1  UNL1        0.0265
     36 C         144.2118  143.0954  162.2151 C.ar    1  UNL1       -0.0222
     37 C         144.8542  142.0813  163.1144 C.ar    1  UNL1       -0.0043
     38 C         145.0090  142.3683  164.5784 C.ar    1  UNL1       -0.0003
     39 C         144.5215  143.6696  165.1433 C.ar    1  UNL1       -0.0000
     40 C         143.8791  144.6838  164.2440 C.ar    1  UNL1       -0.0003
     41 C         143.7242  144.3967  162.7799 C.ar    1  UNL1       -0.0043
@<TRIPOS>BOND
     1    21    22    1
     2    22    11    1
     3    11    12   ar
     4    12    13   ar
     5    13    14    1
     6    13    15   ar
     7    15    16    1
     8    15    17   ar
     9    17    18   ar
    10    18     7    1
    11     7     8    2
    12     7     9   am
    13     1     9    1
    14     1     2    1
    15     2     3    1
    16     3     4    1
    17     4    25    1
    18    25    26    1
    19    26    27    1
    20    27    28    2
    21    27    29   am
    22    29    30    1
    23    30    31    1
    24    31    32    1
    25    32    35    1
    26    35    36    1
    27    36    37   ar
    28    37    38   ar
    29    38    39   ar
    30    39    40   ar
    31    40    41   ar
    32    32    33    1
    33    33    34    1
    34     4     5    1
    35     5     6    1
    36     6    23    1
    37    23    24    1
    38    18    11   ar
    39     6     1    1
    40    34    29    1
    41    41    36   ar
    42    14    19    1
    43    14    20    1
    44     9    10    1
@<TRIPOS>MOLECULE
*****
 41 44 0 0 0
SMALL
GASTEIGER

@<TRIPOS>ATOM
      1 C         142.0525  138.6545  164.2312 C.3     1  UNL1        0.1017
      2 C         140.9934  138.0593  163.3514 C.3     1  UNL1        0.0394
      3 C         141.3282  137.6469  161.9486 C.3     1  UNL1        0.0740
      4 N         142.7221  137.8297  161.4256 N.3     1  UNL1       -0.2701
      5 C         143.7812  138.4249  162.3053 C.3     1  UNL1        0.1037
      6 C         143.4465  138.8373  163.7081 C.3     1  UNL1        0.1490
      7 C         141.4444  140.5082  165.9470 C.2     1  UNL1        0.2488
      8 O         141.5059  141.5371  164.8572 O.2     1  UNL1       -0.2700
      9 N         141.7178  139.0669  165.6340 N.am    1  UNL1       -0.2999
     10 H         141.6774  138.3917  166.3492 H       1  UNL1        0.1498
     11 C         139.9237  140.3207  168.0451 C.ar    1  UNL1        0.1443
     12 C         139.5889  140.7331  169.4479 C.ar    1  UNL1        0.0520
     13 C         140.4402  141.7454  170.1554 C.ar    1  UNL1        0.0553
     14 N         140.1054  142.1578  171.5583 N.pl3   1  UNL1       -0.3563
     15 C         141.6262  142.3453  169.4601 C.ar    1  UNL1        0.0709
     16 CL        142.4775  143.3577  170.1676 Cl      1  UNL1       -0.0810
     17 C         141.9609  141.9329  168.0573 C.ar    1  UNL1        0.0202
     18 C         141.1096  140.9206  167.3498 C.ar    1  UNL1        0.0882
     19 H         139.3270  141.7640  172.0146 H       1  UNL1        0.1424
     20 H         140.6641  142.8222  172.0226 H       1  UNL1        0.1424
     21 C         138.1882  139.7335  166.2030 C.3     1  UNL1        0.2525
     22 O         139.0724  139.3084  167.3376 O.3     1  UNL1       -0.4712
     23 O         144.5056  139.4326  164.5879 O.3     1  UNL1       -0.3505
     24 C         145.1713  140.7181  164.1954 C.3     1  UNL1        0.1741
     25 C         143.0569  137.4173  160.0228 C.3     1  UNL1        0.0818
     26 C         142.6112  138.2620  158.8661 C.3     1  UNL1        0.1026
     27 C         143.0980  139.6750  158.7379 C.2     1  UNL1        0.2270
     28 O         144.4205  139.9567  158.0886 O.2     1  UNL1       -0.2748
     29 N         142.2622  140.8064  159.2589 N.am    1  UNL1       -0.2795
     30 C         140.9397  140.5247  159.9083 C.3     1  UNL1        0.0934
     31 C         140.1039  141.6560  160.4293 C.3     1  UNL1        0.0219
     32 C         140.5907  143.0691  160.3011 C.3     1  UNL1        0.0078
     33 C         141.9132  143.3507  159.6517 C.3     1  UNL1        0.0219
     34 C         142.7489  142.2194  159.1307 C.3     1  UNL1        0.0934
     35 C         139.7549  144.2005  160.8221 C.3     1  UNL1        0.0265
     36 C         139.4397  144.2878  162.2861 C.ar    1  UNL1       -0.0222
     37 C         140.5151  144.6580  163.2640 C.ar    1  UNL1       -0.0043
     38 C         140.1999  144.7453  164.7279 C.ar    1  UNL1       -0.0003
     39 C         138.8093  144.4623  165.2138 C.ar    1  UNL1       -0.0000
     40 C         137.7339  144.0921  164.2359 C.ar    1  UNL1       -0.0003
     41 C         138.0491  144.0048  162.7720 C.ar    1  UNL1       -0.0043
@<TRIPOS>BOND
     1    21    22    1
     2    22    11    1
     3    11    12   ar
     4    12    13   ar
     5    13    14    1
     6    13    15   ar
     7    15    16    1
     8    15    17   ar
     9    17    18   ar
    10    18     7    1
    11     7     8    2
    12     7     9   am
    13     1     9    1
    14     1     2    1
    15     2     3    1
    16     3     4    1
    17     4    25    1
    18    25    26    1
    19    26    27    1
    20    27    28    2
    21    27    29   am
    22    29    30    1
    23    30    31    1
    24    31    32    1
    25    32    35    1
    26    35    36    1
    27    36    37   ar
    28    37    38   ar
    29    38    39   ar
    30    39    40   ar
    31    40    41   ar
    32    32    33    1
    33    33    34    1
    34     4     5    1
    35     5     6    1
    36     6    23    1
    37    23    24    1
    38    18    11   ar
    39     6     1    1
    40    34    29    1
    41    41    36   ar
    42    14    19    1
    43    14    20    1
    44     9    10    1
@<TRIPOS>MOLECULE
*****
 41 44 0 0 0
SMALL
GASTEIGER

@<TRIPOS>ATOM
      1 C         139.1579  143.1294  162.8858 C.3     1  UNL1        0.1017
      2 C         138.4684  142.1884  161.9428 C.3     1  UNL1        0.0394
      3 C         138.5243  142.4339  160.4640 C.3     1  UNL1        0.0740
      4 N         139.2697  143.6202  159.9283 N.3     1  UNL1       -0.2701
      5 C         139.9592  144.5611  160.8713 C.3     1  UNL1        0.1037
      6 C         139.9033  144.3158  162.3500 C.3     1  UNL1        0.1490
      7 C         140.1521  142.0409  165.0250 C.2     1  UNL1        0.2488
      8 O         141.2581  141.4431  164.2069 O.2     1  UNL1       -0.2700
      9 N         139.1020  142.8840  164.3645 N.am    1  UNL1       -0.2999
     10 H         138.3761  143.2764  164.9015 H       1  UNL1        0.1498
     11 C         139.6281  140.4700  167.0270 C.ar    1  UNL1        0.1443
     12 C         139.5722  140.2247  168.5057 C.ar    1  UNL1        0.0520
     13 C         139.9844  141.3050  169.4613 C.ar    1  UNL1        0.0553
     14 N         139.9285  141.0596  170.9401 N.pl3   1  UNL1       -0.3563
     15 C         140.4525  142.6305  168.9381 C.ar    1  UNL1        0.0709
     16 CL        140.8647  143.7108  169.8937 Cl      1  UNL1       -0.0810
     17 C         140.5084  142.8758  167.4594 C.ar    1  UNL1        0.0202
     18 C         140.0962  141.7955  166.5038 C.ar    1  UNL1        0.0882
     19 H         139.6213  140.1896  171.2834 H       1  UNL1        0.1424
     20 H         140.1990  141.7686  171.5673 H       1  UNL1        0.1424
     21 C         138.0442  138.5104  166.3936 C.3     1  UNL1        0.2525
     22 O         139.2160  139.3897  166.0714 O.3     1  UNL1       -0.4712
     23 O         140.5928  145.2567  163.2929 O.3     1  UNL1       -0.3505
     24 C         142.0702  145.1387  163.5234 C.3     1  UNL1        0.1741
     25 C         139.3256  143.8655  158.4496 C.3     1  UNL1        0.0818
     26 C         140.5576  143.5020  157.6750 C.3     1  UNL1        0.1026
     27 C         141.9074  143.6056  158.3211 C.2     1  UNL1        0.2270
     28 O         142.7164  144.8599  158.1712 O.2     1  UNL1       -0.2748
     29 N         142.4483  142.4550  159.1169 N.am    1  UNL1       -0.2795
     30 C         141.6393  141.2007  159.2667 C.3     1  UNL1        0.0934
     31 C         142.1801  140.0500  160.0626 C.3     1  UNL1        0.0219
     32 C         143.5300  140.1536  160.7087 C.3     1  UNL1        0.0078
     33 C         144.3389  141.4078  160.5588 C.3     1  UNL1        0.0219
     34 C         143.7980  142.5585  159.7630 C.3     1  UNL1        0.0934
     35 C         144.0708  139.0029  161.5045 C.3     1  UNL1        0.0265
     36 C         143.5986  138.7754  162.9100 C.ar    1  UNL1       -0.0222
     37 C         144.4063  139.2889  164.0649 C.ar    1  UNL1       -0.0043
     38 C         143.9341  139.0613  165.4703 C.ar    1  UNL1       -0.0003
     39 C         142.6542  138.3203  165.7208 C.ar    1  UNL1       -0.0000
     40 C         141.8465  137.8068  164.5659 C.ar    1  UNL1       -0.0003
     41 C         142.3187  138.0343  163.1605 C.ar    1  UNL1       -0.0043
@<TRIPOS>BOND
     1    21    22    1
     2    22    11    1
     3    11    12   ar
     4    12    13   ar
     5    13    14    1
     6    13    15   ar
     7    15    16    1
     8    15    17   ar
     9    17    18   ar
    10    18     7    1
    11     7     8    2
    12     7     9   am
    13     1     9    1
    14     1     2    1
    15     2     3    1
    16     3     4    1
    17     4    25    1
    18    25    26    1
    19    26    27    1
    20    27    28    2
    21    27    29   am
    22    29    30    1
    23    30    31    1
    24    31    32    1
    25    32    35    1
    26    35    36    1
    27    36    37   ar
    28    37    38   ar
    29    38    39   ar
    30    39    40   ar
    31    40    41   ar
    32    32    33    1
    33    33    34    1
    34     4     5    1
    35     5     6    1
    36     6    23    1
    37    23    24    1
    38    18    11   ar
    39     6     1    1
    40    34    29    1
    41    41    36   ar
    42    14    19    1
    43    14    20    1
    44     9    10    1
@<TRIPOS>MOLECULE
*****
 41 44 0 0 0
SMALL
GASTEIGER

@<TRIPOS>ATOM
      1 C         139.7827  143.6046  163.8116 C.3     1  UNL1        0.1017
      2 C         140.5839  144.8625  163.6510 C.3     1  UNL1        0.0394
      3 C         140.7604  145.4709  162.2913 C.3     1  UNL1        0.0740
      4 N         140.1357  144.8214  161.0922 N.3     1  UNL1       -0.2701
      5 C         139.3345  143.5636  161.2527 C.3     1  UNL1        0.1037
      6 C         139.1580  142.9552  162.6124 C.3     1  UNL1        0.1490
      7 C         140.7110  142.1833  165.7783 C.2     1  UNL1        0.2488
      8 O         141.9923  141.9789  165.0258 O.2     1  UNL1       -0.2700
      9 N         139.6062  142.9962  165.1712 N.am    1  UNL1       -0.2999
     10 H         138.7652  143.1304  165.6651 H       1  UNL1        0.1498
     11 C         139.5530  140.4584  167.3384 C.ar    1  UNL1        0.1443
     12 C         139.3764  139.8501  168.6980 C.ar    1  UNL1        0.0520
     13 C         140.1813  140.3582  169.8573 C.ar    1  UNL1        0.0553
     14 N         140.0048  139.7498  171.2170 N.pl3   1  UNL1       -0.3563
     15 C         141.1628  141.4747  169.6569 C.ar    1  UNL1        0.0709
     16 CL        141.9677  141.9828  170.8162 Cl      1  UNL1       -0.0810
     17 C         141.3393  142.0830  168.2973 C.ar    1  UNL1        0.0202
     18 C         140.5344  141.5749  167.1380 C.ar    1  UNL1        0.0882
     19 H         139.3606  139.0170  171.3485 H       1  UNL1        0.1424
     20 H         140.5330  140.0833  171.9779 H       1  UNL1        0.1424
     21 C         138.0042  138.6529  166.2938 C.3     1  UNL1        0.2525
     22 O         138.7480  139.9503  166.1791 O.3     1  UNL1       -0.4712
     23 O         138.3567  141.6973  162.7729 O.3     1  UNL1       -0.3505
     24 C         139.0358  140.3616  162.7041 C.3     1  UNL1        0.1741
     25 C         140.3122  145.4298  159.7326 C.3     1  UNL1        0.0818
     26 C         141.4961  145.0551  158.8911 C.3     1  UNL1        0.1026
     27 C         141.6224  143.6606  158.3529 C.2     1  UNL1        0.2270
     28 O         141.1074  143.3364  156.9819 O.2     1  UNL1       -0.2748
     29 N         142.2637  142.5905  159.1856 N.am    1  UNL1       -0.2795
     30 C         142.7787  142.9148  160.5566 C.3     1  UNL1        0.0934
     31 C         143.4200  141.8446  161.3894 C.3     1  UNL1        0.0219
     32 C         143.5463  140.4501  160.8511 C.3     1  UNL1        0.0078
     33 C         143.0313  140.1259  159.4801 C.3     1  UNL1        0.0219
     34 C         142.3900  141.1961  158.6474 C.3     1  UNL1        0.0934
     35 C         144.1876  139.3800  161.6839 C.3     1  UNL1        0.0265
     36 C         143.6461  139.0648  163.0468 C.ar    1  UNL1       -0.0222
     37 C         142.2772  138.4687  163.1905 C.ar    1  UNL1       -0.0043
     38 C         141.7357  138.1535  164.5533 C.ar    1  UNL1       -0.0003
     39 C         142.5632  138.4345  165.7725 C.ar    1  UNL1       -0.0000
     40 C         143.9321  139.0306  165.6288 C.ar    1  UNL1       -0.0003
     41 C         144.4735  139.3457  164.2660 C.ar    1  UNL1       -0.0043
@<TRIPOS>BOND
     1    21    22    1
     2    22    11    1
     3    11    12   ar
     4    12    13   ar
     5    13    14    1
     6    13    15   ar
     7    15    16    1
     8    15    17   ar
     9    17    18   ar
    10    18     7    1
    11     7     8    2
    12     7     9   am
    13     1     9    1
    14     1     2    1
    15     2     3    1
    16     3     4    1
    17     4    25    1
    18    25    26    1
    19    26    27    1
    20    27    28    2
    21    27    29   am
    22    29    30    1
    23    30    31    1
    24    31    32    1
    25    32    35    1
    26    35    36    1
    27    36    37   ar
    28    37    38   ar
    29    38    39   ar
    30    39    40   ar
    31    40    41   ar
    32    32    33    1
    33    33    34    1
    34     4     5    1
    35     5     6    1
    36     6    23    1
    37    23    24    1
    38    18    11   ar
    39     6     1    1
    40    34    29    1
    41    41    36   ar
    42    14    19    1
    43    14    20    1
    44     9    10    1
@<TRIPOS>MOLECULE
*****
 41 44 0 0 0
SMALL
GASTEIGER

@<TRIPOS>ATOM
      1 C         142.7631  143.5516  162.6653 C.3     1  UNL1        0.1017
      2 C         144.0763  143.0049  162.1895 C.3     1  UNL1        0.0394
      3 C         144.3574  142.9018  160.7196 C.3     1  UNL1        0.0740
      4 N         143.3252  143.3453  159.7257 N.3     1  UNL1       -0.2701
      5 C         142.0120  143.8921  160.2016 C.3     1  UNL1        0.1037
      6 C         141.7309  143.9952  161.6714 C.3     1  UNL1        0.1490
      7 C         142.3542  142.4108  164.9634 C.2     1  UNL1        0.2488
      8 O         142.5075  141.0636  164.3220 O.2     1  UNL1       -0.2700
      9 N         142.4820  143.6548  164.1351 N.am    1  UNL1       -0.2999
     10 H         142.3814  144.5390  164.5562 H       1  UNL1        0.1498
     11 C         140.6847  142.8195  166.9117 C.ar    1  UNL1        0.1443
     12 C         140.4036  142.9227  168.3815 C.ar    1  UNL1        0.0520
     13 C         141.5110  142.7204  169.3729 C.ar    1  UNL1        0.0553
     14 N         141.2299  142.8237  170.8427 N.pl3   1  UNL1       -0.3563
     15 C         142.8994  142.4150  168.8944 C.ar    1  UNL1        0.0709
     16 CL        144.0068  142.2128  169.8858 Cl      1  UNL1       -0.0810
     17 C         143.1805  142.3118  167.4247 C.ar    1  UNL1        0.0202
     18 C         142.0731  142.5140  166.4333 C.ar    1  UNL1        0.0882
     19 H         140.3186  143.0241  171.1567 H       1  UNL1        0.1424
     20 H         141.9567  142.6909  171.4934 H       1  UNL1        0.1424
     21 C         139.1678  144.4098  165.5261 C.3     1  UNL1        0.2525
     22 O         139.5773  143.0217  165.9203 O.3     1  UNL1       -0.4712
     23 O         140.4177  144.5420  162.1473 O.3     1  UNL1       -0.3505
     24 C         140.1392  146.0128  162.0530 C.3     1  UNL1        0.1741
     25 C         143.6063  143.2421  158.2559 C.3     1  UNL1        0.0818
     26 C         143.1111  142.0585  157.4789 C.3     1  UNL1        0.1026
     27 C         143.1460  140.6903  158.0929 C.2     1  UNL1        0.2270
     28 O         144.3519  139.8170  157.9107 O.2     1  UNL1       -0.2748
     29 N         141.9750  140.1956  158.8892 N.am    1  UNL1       -0.2795
     30 C         140.7692  141.0690  159.0713 C.3     1  UNL1        0.0934
     31 C         139.5982  140.5742  159.8675 C.3     1  UNL1        0.0219
     32 C         139.6331  139.2060  160.4816 C.3     1  UNL1        0.0078
     33 C         140.8389  138.3327  160.2994 C.3     1  UNL1        0.0219
     34 C         142.0099  138.8275  159.5032 C.3     1  UNL1        0.0934
     35 C         138.4621  138.7112  161.2778 C.3     1  UNL1        0.0265
     36 C         138.4969  138.7668  162.7764 C.ar    1  UNL1       -0.0222
     37 C         138.9358  137.5664  163.5614 C.ar    1  UNL1       -0.0043
     38 C         138.9706  137.6219  165.0600 C.ar    1  UNL1       -0.0003
     39 C         138.5664  138.8779  165.7735 C.ar    1  UNL1       -0.0000
     40 C         138.1275  140.0784  164.9885 C.ar    1  UNL1       -0.0003
     41 C         138.0927  140.0228  163.4900 C.ar    1  UNL1       -0.0043
@<TRIPOS>BOND
     1    21    22    1
     2    22    11    1
     3    11    12   ar
     4    12    13   ar
     5    13    14    1
     6    13    15   ar
     7    15    16    1
     8    15    17   ar
     9    17    18   ar
    10    18     7    1
    11     7     8    2
    12     7     9   am
    13     1     9    1
    14     1     2    1
    15     2     3    1
    16     3     4    1
    17     4    25    1
    18    25    26    1
    19    26    27    1
    20    27    28    2
    21    27    29   am
    22    29    30    1
    23    30    31    1
    24    31    32    1
    25    32    35    1
    26    35    36    1
    27    36    37   ar
    28    37    38   ar
    29    38    39   ar
    30    39    40   ar
    31    40    41   ar
    32    32    33    1
    33    33    34    1
    34     4     5    1
    35     5     6    1
    36     6    23    1
    37    23    24    1
    38    18    11   ar
    39     6     1    1
    40    34    29    1
    41    41    36   ar
    42    14    19    1
    43    14    20    1
    44     9    10    1
@<TRIPOS>MOLECULE
*****
 41 44 0 0 0
SMALL
GASTEIGER

@<TRIPOS>ATOM
      1 C         141.6145  138.3422  163.4285 C.3     1  UNL1        0.1017
      2 C         143.0455  138.1963  163.0033 C.3     1  UNL1        0.0394
      3 C         143.3862  138.0675  161.5482 C.3     1  UNL1        0.0740
      4 N         142.2959  138.0845  160.5183 N.3     1  UNL1       -0.2701
      5 C         140.8648  138.2303  160.9434 C.3     1  UNL1        0.1037
      6 C         140.5241  138.3592  162.3984 C.3     1  UNL1        0.1490
      7 C         141.6851  139.6965  165.6445 C.2     1  UNL1        0.2488
      8 O         142.4373  140.7930  164.9504 O.2     1  UNL1       -0.2700
      9 N         141.2737  138.4711  164.8835 N.am    1  UNL1       -0.2999
     10 H         140.7801  137.7513  165.3391 H       1  UNL1        0.1498
     11 C         139.9093  139.8938  167.5307 C.ar    1  UNL1        0.1443
     12 C         139.5686  140.0226  168.9857 C.ar    1  UNL1        0.0520
     13 C         140.6629  140.0829  170.0098 C.ar    1  UNL1        0.0553
     14 N         140.3222  140.2117  171.4649 N.pl3   1  UNL1       -0.3563
     15 C         142.0980  140.0144  169.5788 C.ar    1  UNL1        0.0709
     16 CL        143.1924  140.0748  170.6029 Cl      1  UNL1       -0.0810
     17 C         142.4387  139.8856  168.1237 C.ar    1  UNL1        0.0202
     18 C         141.3444  139.8253  167.0997 C.ar    1  UNL1        0.0882
     19 H         139.3803  140.2567  171.7478 H       1  UNL1        0.1424
     20 H         141.0404  140.2513  172.1371 H       1  UNL1        0.1424
     21 C         137.8276  138.7044  166.5296 C.3     1  UNL1        0.2525
     22 O         138.8149  139.8335  166.5066 O.3     1  UNL1       -0.4712
     23 O         139.0930  138.5050  162.8236 O.3     1  UNL1       -0.3505
     24 C         137.9883  138.1909  161.8588 C.3     1  UNL1        0.1741
     25 C         142.6366  137.9556  159.0632 C.3     1  UNL1        0.0818
     26 C         143.0216  139.1708  158.2726 C.3     1  UNL1        0.1026
     27 C         141.9771  140.1755  157.8853 C.2     1  UNL1        0.2270
     28 O         141.2349  140.0246  156.5906 O.2     1  UNL1       -0.2748
     29 N         141.6750  141.3310  158.7928 N.am    1  UNL1       -0.2795
     30 C         142.4173  141.4818  160.0876 C.3     1  UNL1        0.0934
     31 C         142.1151  142.6373  160.9950 C.3     1  UNL1        0.0219
     32 C         141.0707  143.6419  160.6078 C.3     1  UNL1        0.0078
     33 C         140.3285  143.4911  159.3131 C.3     1  UNL1        0.0219
     34 C         140.6306  142.3356  158.4056 C.3     1  UNL1        0.0934
     35 C         140.7685  144.7974  161.5153 C.3     1  UNL1        0.0265
     36 C         139.8334  144.6164  162.6741 C.ar    1  UNL1       -0.0222
     37 C         140.3134  144.8717  164.0721 C.ar    1  UNL1       -0.0043
     38 C         139.3784  144.6906  165.2309 C.ar    1  UNL1       -0.0003
     39 C         137.9633  144.2542  164.9917 C.ar    1  UNL1       -0.0000
     40 C         137.4833  143.9989  163.5938 C.ar    1  UNL1       -0.0003
     41 C         138.4184  144.1799  162.4350 C.ar    1  UNL1       -0.0043
@<TRIPOS>BOND
     1    21    22    1
     2    22    11    1
     3    11    12   ar
     4    12    13   ar
     5    13    14    1
     6    13    15   ar
     7    15    16    1
     8    15    17   ar
     9    17    18   ar
    10    18     7    1
    11     7     8    2
    12     7     9   am
    13     1     9    1
    14     1     2    1
    15     2     3    1
    16     3     4    1
    17     4    25    1
    18    25    26    1
    19    26    27    1
    20    27    28    2
    21    27    29   am
    22    29    30    1
    23    30    31    1
    24    31    32    1
    25    32    35    1
    26    35    36    1
    27    36    37   ar
    28    37    38   ar
    29    38    39   ar
    30    39    40   ar
    31    40    41   ar
    32    32    33    1
    33    33    34    1
    34     4     5    1
    35     5     6    1
    36     6    23    1
    37    23    24    1
    38    18    11   ar
    39     6     1    1
    40    34    29    1
    41    41    36   ar
    42    14    19    1
    43    14    20    1
    44     9    10    1
@<TRIPOS>MOLECULE
*****
 41 44 0 0 0
SMALL
GASTEIGER

@<TRIPOS>ATOM
      1 C         141.1072  143.7090  163.6821 C.3     1  UNL1        0.1017
      2 C         142.2845  143.8192  162.7592 C.3     1  UNL1        0.0394
      3 C         142.1231  144.4550  161.4102 C.3     1  UNL1        0.0740
      4 N         140.7844  144.9807  160.9842 N.3     1  UNL1       -0.2701
      5 C         139.6071  144.8705  161.9070 C.3     1  UNL1        0.1037
      6 C         139.7684  144.2347  163.2560 C.3     1  UNL1        0.1490
      7 C         140.9594  141.6171  165.2157 C.2     1  UNL1        0.2488
      8 O         140.4890  140.7967  164.0514 O.2     1  UNL1       -0.2700
      9 N         141.2685  143.0733  165.0311 N.am    1  UNL1       -0.2999
     10 H         141.5773  143.6117  165.7952 H       1  UNL1        0.1498
     11 C         142.4149  140.3172  166.9309 C.ar    1  UNL1        0.1443
     12 C         142.5762  139.6815  168.2799 C.ar    1  UNL1        0.0520
     13 C         141.4434  139.7099  169.2627 C.ar    1  UNL1        0.0553
     14 N         141.6047  139.0741  170.6117 N.pl3   1  UNL1       -0.3563
     15 C         140.1492  140.3740  168.8965 C.ar    1  UNL1        0.0709
     16 CL        139.0164  140.4024  169.8793 Cl      1  UNL1       -0.0810
     17 C         139.9879  141.0097  167.5475 C.ar    1  UNL1        0.0202
     18 C         141.1208  140.9813  166.5647 C.ar    1  UNL1        0.0882
     19 H         142.4541  138.6382  170.8520 H       1  UNL1        0.1424
     20 H         140.8612  139.0927  171.2568 H       1  UNL1        0.1424
     21 C         144.0151  138.9817  165.3799 C.3     1  UNL1        0.2525
     22 O         143.5477  140.2888  165.9481 O.3     1  UNL1       -0.4712
     23 O         138.5911  144.1246  164.1789 O.3     1  UNL1       -0.3505
     24 C         138.5446  144.9414  165.4361 C.3     1  UNL1        0.1741
     25 C         140.6231  145.6164  159.6352 C.3     1  UNL1        0.0818
     26 C         140.0866  144.8139  158.4871 C.3     1  UNL1        0.1026
     27 C         140.7988  143.5704  158.0437 C.2     1  UNL1        0.2270
     28 O         141.8725  143.6530  156.9996 O.2     1  UNL1       -0.2748
     29 N         140.4371  142.2444  158.6443 N.am    1  UNL1       -0.2795
     30 C         139.3633  142.1618  159.6884 C.3     1  UNL1        0.0934
     31 C         139.0016  140.8357  160.2891 C.3     1  UNL1        0.0219
     32 C         139.7138  139.5922  159.8456 C.3     1  UNL1        0.0078
     33 C         140.7876  139.6748  158.8015 C.3     1  UNL1        0.0219
     34 C         141.1492  141.0009  158.2009 C.3     1  UNL1        0.0934
     35 C         139.3521  138.2662  160.4462 C.3     1  UNL1        0.0265
     36 C         139.6584  137.9873  161.8879 C.ar    1  UNL1       -0.0222
     37 C         138.5652  138.0514  162.9129 C.ar    1  UNL1       -0.0043
     38 C         138.8715  137.7725  164.3546 C.ar    1  UNL1       -0.0003
     39 C         140.2711  137.4295  164.7712 C.ar    1  UNL1       -0.0000
     40 C         141.3643  137.3655  163.7462 C.ar    1  UNL1       -0.0003
     41 C         141.0580  137.6443  162.3046 C.ar    1  UNL1       -0.0043
@<TRIPOS>BOND
     1    21    22    1
     2    22    11    1
     3    11    12   ar
     4    12    13   ar
     5    13    14    1
     6    13    15   ar
     7    15    16    1
     8    15    17   ar
     9    17    18   ar
    10    18     7    1
    11     7     8    2
    12     7     9   am
    13     1     9    1
    14     1     2    1
    15     2     3    1
    16     3     4    1
    17     4    25    1
    18    25    26    1
    19    26    27    1
    20    27    28    2
    21    27    29   am
    22    29    30    1
    23    30    31    1
    24    31    32    1
    25    32    35    1
    26    35    36    1
    27    36    37   ar
    28    37    38   ar
    29    38    39   ar
    30    39    40   ar
    31    40    41   ar
    32    32    33    1
    33    33    34    1
    34     4     5    1
    35     5     6    1
    36     6    23    1
    37    23    24    1
    38    18    11   ar
    39     6     1    1
    40    34    29    1
    41    41    36   ar
    42    14    19    1
    43    14    20    1
    44     9    10    1
@<TRIPOS>MOLECULE
*****
 41 44 0 0 0
SMALL
GASTEIGER

@<TRIPOS>ATOM
      1 C         140.9713  144.0478  163.9945 C.3     1  UNL1        0.1017
      2 C         139.5698  144.2580  163.5032 C.3     1  UNL1        0.0394
      3 C         139.3298  144.7279  162.0990 C.3     1  UNL1        0.0740
      4 N         140.4914  144.9877  161.1863 N.3     1  UNL1       -0.2701
      5 C         141.8929  144.7775  161.6776 C.3     1  UNL1        0.1037
      6 C         142.1330  144.3076  163.0816 C.3     1  UNL1        0.1490
      7 C         141.6357  142.1619  165.6534 C.2     1  UNL1        0.2488
      8 O         141.8200  141.2158  164.5041 O.2     1  UNL1       -0.2700
      9 N         141.2114  143.5779  165.3986 N.am    1  UNL1       -0.2999
     10 H         141.0904  144.1988  166.1530 H       1  UNL1        0.1498
     11 C         140.9940  140.6365  167.6563 C.ar    1  UNL1        0.1443
     12 C         141.2341  140.1666  169.0604 C.ar    1  UNL1        0.0520
     13 C         142.3558  140.7523  169.8658 C.ar    1  UNL1        0.0553
     14 N         142.5958  140.2824  171.2700 N.pl3   1  UNL1       -0.3563
     15 C         143.2375  141.8078  169.2671 C.ar    1  UNL1        0.0709
     16 CL        144.3592  142.3935  170.0726 Cl      1  UNL1       -0.0810
     17 C         142.9974  142.2776  167.8630 C.ar    1  UNL1        0.0202
     18 C         141.8757  141.6920  167.0576 C.ar    1  UNL1        0.0882
     19 H         142.0171  139.5896  171.6629 H       1  UNL1        0.1424
     20 H         143.3320  140.6667  171.7986 H       1  UNL1        0.1424
     21 C         138.6884  139.4442  167.5439 C.3     1  UNL1        0.2525
     22 O         139.8723  140.0508  166.8508 O.3     1  UNL1       -0.4712
     23 O         143.5345  144.0974  163.5729 O.3     1  UNL1       -0.3505
     24 C         144.5173  143.3361  162.7336 C.3     1  UNL1        0.1741
     25 C         140.2513  145.4576  159.7822 C.3     1  UNL1        0.0818
     26 C         140.7248  144.6311  158.6234 C.3     1  UNL1        0.1026
     27 C         139.8120  143.6140  158.0050 C.2     1  UNL1        0.2270
     28 O         139.0296  143.9593  156.7727 O.2     1  UNL1       -0.2748
     29 N         139.6815  142.2517  158.6190 N.am    1  UNL1       -0.2795
     30 C         140.4639  141.9065  159.8515 C.3     1  UNL1        0.0934
     31 C         140.3335  140.5441  160.4655 C.3     1  UNL1        0.0219
     32 C         139.4206  139.5270  159.8471 C.3     1  UNL1        0.0078
     33 C         138.6383  139.8723  158.6148 C.3     1  UNL1        0.0219
     34 C         138.7688  141.2346  158.0007 C.3     1  UNL1        0.0934
     35 C         139.2902  138.1647  160.4611 C.3     1  UNL1        0.0265
     36 C         139.7498  137.9297  161.8696 C.ar    1  UNL1       -0.0222
     37 C         141.2099  137.7488  162.1617 C.ar    1  UNL1       -0.0043
     38 C         141.6695  137.5138  163.5700 C.ar    1  UNL1       -0.0003
     39 C         140.6689  137.4598  164.6863 C.ar    1  UNL1       -0.0000
     40 C         139.2089  137.6407  164.3942 C.ar    1  UNL1       -0.0003
     41 C         138.7493  137.8757  162.9858 C.ar    1  UNL1       -0.0043
@<TRIPOS>BOND
     1    21    22    1
     2    22    11    1
     3    11    12   ar
     4    12    13   ar
     5    13    14    1
     6    13    15   ar
     7    15    16    1
     8    15    17   ar
     9    17    18   ar
    10    18     7    1
    11     7     8    2
    12     7     9   am
    13     1     9    1
    14     1     2    1
    15     2     3    1
    16     3     4    1
    17     4    25    1
    18    25    26    1
    19    26    27    1
    20    27    28    2
    21    27    29   am
    22    29    30    1
    23    30    31    1
    24    31    32    1
    25    32    35    1
    26    35    36    1
    27    36    37   ar
    28    37    38   ar
    29    38    39   ar
    30    39    40   ar
    31    40    41   ar
    32    32    33    1
    33    33    34    1
    34     4     5    1
    35     5     6    1
    36     6    23    1
    37    23    24    1
    38    18    11   ar
    39     6     1    1
    40    34    29    1
    41    41    36   ar
    42    14    19    1
    43    14    20    1
    44     9    10    1
