@<TRIPOS>MOLECULE
*****
 32 36 0 0 0
SMALL
GASTEIGER

@<TRIPOS>ATOM
      1 C         142.0315  144.3795  161.8220 C.ar    1  UNL1        0.1018
      2 C         140.7590  145.1707  161.8919 C.ar    1  UNL1        0.0208
      3 C         140.1209  145.6773  160.6325 C.ar    1  UNL1        0.0031
      4 C         140.7552  145.3928  159.3033 C.ar    1  UNL1        0.0174
      5 C         140.1169  145.8994  158.0439 C.ar    1  UNL1       -0.0027
      6 C         140.7512  145.6149  156.7147 C.ar    1  UNL1       -0.0207
      7 C         142.0237  144.8237  156.6449 C.ar    1  UNL1       -0.0027
      8 C         142.6619  144.3171  157.9043 C.ar    1  UNL1        0.0188
      9 C         142.0276  144.6016  159.2335 C.ar    1  UNL1        0.0813
     10 N         142.6658  144.0950  160.4929 N.ar    1  UNL1       -0.2437
     11 C         140.8829  141.9931  163.7287 C.3     1  UNL1        0.0539
     12 C         142.1418  142.7759  163.9578 C.ar    1  UNL1        0.0833
     13 C         142.6697  143.8729  163.0814 C.ar    1  UNL1        0.1355
     14 N         143.9479  144.3742  163.6855 N.ar    1  UNL1       -0.1273
     15 N         144.2099  143.5871  164.9353 N.ar    1  UNL1       -0.0598
     16 N         143.0936  142.5993  165.1036 N.ar    1  UNL1       -0.2122
     17 C         142.9538  141.6088  166.2213 C.ar    1  UNL1        0.1115
     18 C         142.7109  142.0878  167.6219 C.ar    1  UNL1        0.0238
     19 C         142.5711  141.0973  168.7396 C.ar    1  UNL1        0.0313
     20 C         142.6742  139.6278  168.4568 C.ar    1  UNL1        0.1425
     21 F         142.5344  138.6373  169.5745 F       1  UNL1       -0.2041
     22 C         142.9171  139.1488  167.0562 C.ar    1  UNL1        0.0608
     23 C         143.0569  140.1393  165.9385 C.ar    1  UNL1        0.1599
     24 F         143.2998  139.6603  164.5379 F       1  UNL1       -0.2025
     25 C         140.1131  146.1215  155.4554 C.3     1  UNL1        0.0437
     26 C         138.8404  146.9125  155.5251 C.3     1  UNL1        0.0768
     27 N         138.8914  148.4089  155.6153 N.3     1  UNL1       -0.2737
     28 C         138.3934  149.2407  156.7599 C.3     1  UNL1        0.0721
     29 C         138.6436  150.6821  156.4287 C.3     1  UNL1        0.0187
     30 C         139.2962  150.7412  155.0794 C.3     1  UNL1        0.0174
     31 C         139.4494  149.3362  154.5767 C.3     1  UNL1        0.0576
     32 C         140.0543  148.9300  153.2656 C.3     1  UNL1        0.0173
@<TRIPOS>BOND
     1    11    12    1
     2    12    13   ar
     3    13     1    1
     4     1     2   ar
     5     2     3   ar
     6     3     4   ar
     7     4     5   ar
     8     5     6   ar
     9     6    25    1
    10    25    26    1
    11    26    27    1
    12    27    28    1
    13    28    29    1
    14    29    30    1
    15    30    31    1
    16    31    32    1
    17     6     7   ar
    18     7     8   ar
    19     8     9   ar
    20     9    10   ar
    21    13    14   ar
    22    14    15   ar
    23    15    16   ar
    24    16    17    1
    25    17    18   ar
    26    18    19   ar
    27    19    20   ar
    28    20    21    1
    29    20    22   ar
    30    22    23   ar
    31    23    24    1
    32    16    12   ar
    33    23    17   ar
    34    10     1   ar
    35     9     4   ar
    36    31    27    1
@<TRIPOS>MOLECULE
*****
 32 36 0 0 0
SMALL
GASTEIGER

@<TRIPOS>ATOM
      1 C         141.3913  143.5303  162.9433 C.ar    1  UNL1        0.1018
      2 C         142.6768  143.9470  163.5942 C.ar    1  UNL1        0.0208
      3 C         143.1717  143.2208  164.8098 C.ar    1  UNL1        0.0031
      4 C         142.3812  142.0780  165.3745 C.ar    1  UNL1        0.0174
      5 C         142.8762  141.3518  166.5901 C.ar    1  UNL1       -0.0027
      6 C         142.0856  140.2089  167.1548 C.ar    1  UNL1       -0.0207
      7 C         140.8000  139.7922  166.5038 C.ar    1  UNL1       -0.0027
      8 C         140.3051  140.5184  165.2882 C.ar    1  UNL1        0.0188
      9 C         141.0956  141.6613  164.7236 C.ar    1  UNL1        0.0813
     10 N         140.6007  142.3874  163.5080 N.ar    1  UNL1       -0.2437
     11 C         141.8521  142.6184  159.8440 C.3     1  UNL1        0.0539
     12 C         141.1081  143.8373  160.3031 C.ar    1  UNL1        0.0833
     13 C         140.8963  144.2564  161.7277 C.ar    1  UNL1        0.1355
     14 N         140.1026  145.5292  161.7232 N.ar    1  UNL1       -0.1273
     15 N         139.8239  145.8967  160.2959 N.ar    1  UNL1       -0.0598
     16 N         140.4454  144.8509  159.4181 N.ar    1  UNL1       -0.2122
     17 C         140.4102  144.8237  157.9188 C.ar    1  UNL1        0.1115
     18 C         139.3792  143.9984  157.2076 C.ar    1  UNL1        0.0238
     19 C         139.3441  143.9712  155.7083 C.ar    1  UNL1        0.0313
     20 C         140.3399  144.7693  154.9202 C.ar    1  UNL1        0.1425
     21 F         140.3048  144.7421  153.4208 F       1  UNL1       -0.2041
     22 C         141.3709  145.5947  155.6314 C.ar    1  UNL1        0.0608
     23 C         141.4061  145.6219  157.1307 C.ar    1  UNL1        0.1599
     24 F         142.4371  146.4473  157.8419 F       1  UNL1       -0.2025
     25 C         142.5805  139.4828  168.3704 C.3     1  UNL1        0.0437
     26 C         142.5009  140.1359  169.7185 C.3     1  UNL1        0.0768
     27 N         141.7352  141.4144  169.8884 N.3     1  UNL1       -0.2737
     28 C         142.3259  142.7899  169.9845 C.3     1  UNL1        0.0721
     29 C         141.2001  143.7676  170.1475 C.3     1  UNL1        0.0187
     30 C         139.9135  142.9964  170.1521 C.3     1  UNL1        0.0174
     31 C         140.2442  141.5421  169.9919 C.3     1  UNL1        0.0576
     32 C         139.2572  140.4136  169.9438 C.3     1  UNL1        0.0173
@<TRIPOS>BOND
     1    11    12    1
     2    12    13   ar
     3    13     1    1
     4     1     2   ar
     5     2     3   ar
     6     3     4   ar
     7     4     5   ar
     8     5     6   ar
     9     6    25    1
    10    25    26    1
    11    26    27    1
    12    27    28    1
    13    28    29    1
    14    29    30    1
    15    30    31    1
    16    31    32    1
    17     6     7   ar
    18     7     8   ar
    19     8     9   ar
    20     9    10   ar
    21    13    14   ar
    22    14    15   ar
    23    15    16   ar
    24    16    17    1
    25    17    18   ar
    26    18    19   ar
    27    19    20   ar
    28    20    21    1
    29    20    22   ar
    30    22    23   ar
    31    23    24    1
    32    16    12   ar
    33    23    17   ar
    34    10     1   ar
    35     9     4   ar
    36    31    27    1
@<TRIPOS>MOLECULE
*****
 32 36 0 0 0
SMALL
GASTEIGER

@<TRIPOS>ATOM
      1 C         142.8052  138.8628  159.7506 C.ar    1  UNL1        0.1018
      2 C         143.6837  138.6624  160.9497 C.ar    1  UNL1        0.0208
      3 C         143.0735  138.3331  162.2798 C.ar    1  UNL1        0.0031
      4 C         141.5848  138.2041  162.4107 C.ar    1  UNL1        0.0174
      5 C         140.9747  137.8747  163.7409 C.ar    1  UNL1       -0.0027
      6 C         139.4860  137.7458  163.8719 C.ar    1  UNL1       -0.0207
      7 C         138.6074  137.9462  162.6727 C.ar    1  UNL1       -0.0027
      8 C         139.2176  138.2756  161.3426 C.ar    1  UNL1        0.0188
      9 C         140.7063  138.4045  161.2116 C.ar    1  UNL1        0.0813
     10 N         141.3165  138.7339  159.8815 N.ar    1  UNL1       -0.2437
     11 C         144.1565  141.7128  158.9130 C.3     1  UNL1        0.0539
     12 C         144.0364  140.5022  158.0354 C.ar    1  UNL1        0.0833
     13 C         143.4153  139.1922  158.4204 C.ar    1  UNL1        0.1355
     14 N         143.5114  138.2695  157.2417 N.ar    1  UNL1       -0.1273
     15 N         144.1920  139.0092  156.1283 N.ar    1  UNL1       -0.0598
     16 N         144.5164  140.3891  156.6188 N.ar    1  UNL1       -0.2122
     17 C         145.2008  141.4667  155.8311 C.ar    1  UNL1        0.1115
     18 C         146.6597  141.7411  156.0458 C.ar    1  UNL1        0.0238
     19 C         147.3440  142.8187  155.2581 C.ar    1  UNL1        0.0313
     20 C         146.5694  143.6218  154.2556 C.ar    1  UNL1        0.1425
     21 F         147.2537  144.6993  153.4678 F       1  UNL1       -0.2041
     22 C         145.1104  143.3473  154.0409 C.ar    1  UNL1        0.0608
     23 C         144.4261  142.2697  154.8286 C.ar    1  UNL1        0.1599
     24 F         142.9671  141.9953  154.6139 F       1  UNL1       -0.2025
     25 C         138.8758  137.4164  165.2020 C.3     1  UNL1        0.0437
     26 C         138.2849  138.5062  166.0466 C.3     1  UNL1        0.0768
     27 N         139.0505  139.7753  166.2768 N.3     1  UNL1       -0.2737
     28 C         140.0468  140.0176  167.3717 C.3     1  UNL1        0.0721
     29 C         140.5664  141.4170  167.2242 C.3     1  UNL1        0.0187
     30 C         139.8912  142.0395  166.0382 C.3     1  UNL1        0.0174
     31 C         138.9544  141.0249  165.4527 C.3     1  UNL1        0.0576
     32 C         138.0756  141.2248  164.2536 C.3     1  UNL1        0.0173
@<TRIPOS>BOND
     1    11    12    1
     2    12    13   ar
     3    13     1    1
     4     1     2   ar
     5     2     3   ar
     6     3     4   ar
     7     4     5   ar
     8     5     6   ar
     9     6    25    1
    10    25    26    1
    11    26    27    1
    12    27    28    1
    13    28    29    1
    14    29    30    1
    15    30    31    1
    16    31    32    1
    17     6     7   ar
    18     7     8   ar
    19     8     9   ar
    20     9    10   ar
    21    13    14   ar
    22    14    15   ar
    23    15    16   ar
    24    16    17    1
    25    17    18   ar
    26    18    19   ar
    27    19    20   ar
    28    20    21    1
    29    20    22   ar
    30    22    23   ar
    31    23    24    1
    32    16    12   ar
    33    23    17   ar
    34    10     1   ar
    35     9     4   ar
    36    31    27    1
@<TRIPOS>MOLECULE
*****
 32 36 0 0 0
SMALL
GASTEIGER

@<TRIPOS>ATOM
      1 C         142.5818  138.8696  163.3424 C.ar    1  UNL1        0.1018
      2 C         143.9076  138.6464  162.6774 C.ar    1  UNL1        0.0208
      3 C         143.9742  138.4108  161.1976 C.ar    1  UNL1        0.0031
      4 C         142.7150  138.3984  160.3827 C.ar    1  UNL1        0.0174
      5 C         142.7816  138.1628  158.9027 C.ar    1  UNL1       -0.0027
      6 C         141.5224  138.1504  158.0878 C.ar    1  UNL1       -0.0207
      7 C         140.1964  138.3736  158.7528 C.ar    1  UNL1       -0.0027
      8 C         140.1298  138.6092  160.2327 C.ar    1  UNL1        0.0188
      9 C         141.3891  138.6216  161.0476 C.ar    1  UNL1        0.0813
     10 N         141.3225  138.8571  162.5274 N.ar    1  UNL1       -0.2437
     11 C         140.7156  141.0816  164.8504 C.3     1  UNL1        0.0539
     12 C         141.6573  140.1219  165.5154 C.ar    1  UNL1        0.0833
     13 C         142.5151  139.1052  164.8223 C.ar    1  UNL1        0.1355
     14 N         143.2944  138.3654  165.8688 N.ar    1  UNL1       -0.1273
     15 N         142.9184  138.9249  167.2088 N.ar    1  UNL1       -0.0598
     16 N         141.9065  140.0106  166.9904 N.ar    1  UNL1       -0.2122
     17 C         141.2579  140.8393  168.0592 C.ar    1  UNL1        0.1115
     18 C         140.0170  140.3451  168.7419 C.ar    1  UNL1        0.0238
     19 C         139.3683  141.1738  169.8107 C.ar    1  UNL1        0.0313
     20 C         139.9606  142.4967  170.1969 C.ar    1  UNL1        0.1425
     21 F         139.3119  143.3254  171.2658 F       1  UNL1       -0.2041
     22 C         141.2014  142.9909  169.5143 C.ar    1  UNL1        0.0608
     23 C         141.8501  142.1622  168.4454 C.ar    1  UNL1        0.1599
     24 F         143.0910  142.6564  167.7627 F       1  UNL1       -0.2025
     25 C         141.5890  137.9148  156.6079 C.3     1  UNL1        0.0437
     26 C         142.6902  137.0754  156.0309 C.3     1  UNL1        0.0768
     27 N         142.6454  135.5824  156.1677 N.3     1  UNL1       -0.2737
     28 C         143.3169  134.7746  157.2386 C.3     1  UNL1        0.0721
     29 C         143.0078  133.3279  156.9904 C.3     1  UNL1        0.0187
     30 C         142.1453  133.2416  155.7661 C.3     1  UNL1        0.0174
     31 C         141.9214  134.6350  155.2577 C.3     1  UNL1        0.0576
     32 C         141.1150  135.0142  154.0511 C.3     1  UNL1        0.0173
@<TRIPOS>BOND
     1    11    12    1
     2    12    13   ar
     3    13     1    1
     4     1     2   ar
     5     2     3   ar
     6     3     4   ar
     7     4     5   ar
     8     5     6   ar
     9     6    25    1
    10    25    26    1
    11    26    27    1
    12    27    28    1
    13    28    29    1
    14    29    30    1
    15    30    31    1
    16    31    32    1
    17     6     7   ar
    18     7     8   ar
    19     8     9   ar
    20     9    10   ar
    21    13    14   ar
    22    14    15   ar
    23    15    16   ar
    24    16    17    1
    25    17    18   ar
    26    18    19   ar
    27    19    20   ar
    28    20    21    1
    29    20    22   ar
    30    22    23   ar
    31    23    24    1
    32    16    12   ar
    33    23    17   ar
    34    10     1   ar
    35     9     4   ar
    36    31    27    1
@<TRIPOS>MOLECULE
*****
 32 36 0 0 0
SMALL
GASTEIGER

@<TRIPOS>ATOM
      1 C         142.5642  139.2356  162.3584 C.ar    1  UNL1        0.1018
      2 C         143.6814  138.3194  161.9552 C.ar    1  UNL1        0.0208
      3 C         143.6829  137.6932  160.5923 C.ar    1  UNL1        0.0031
      4 C         142.5672  137.9830  159.6324 C.ar    1  UNL1        0.0174
      5 C         142.5688  137.3567  158.2694 C.ar    1  UNL1       -0.0027
      6 C         141.4531  137.6465  157.3096 C.ar    1  UNL1       -0.0207
      7 C         140.3359  138.5627  157.7128 C.ar    1  UNL1       -0.0027
      8 C         140.3344  139.1890  159.0758 C.ar    1  UNL1        0.0188
      9 C         141.4500  138.8991  160.0356 C.ar    1  UNL1        0.0813
     10 N         141.4485  139.5254  161.3986 N.ar    1  UNL1       -0.2437
     11 C         140.9810  138.1147  164.9827 C.3     1  UNL1        0.0539
     12 C         141.8349  139.3466  164.9276 C.ar    1  UNL1        0.0833
     13 C         142.5626  139.8619  163.7214 C.ar    1  UNL1        0.1355
     14 N         143.2885  141.1134  164.1175 N.ar    1  UNL1       -0.1273
     15 N         143.0094  141.3716  165.5685 N.ar    1  UNL1       -0.0598
     16 N         142.1110  140.2797  166.0692 N.ar    1  UNL1       -0.2122
     17 C         141.5817  140.1445  167.4662 C.ar    1  UNL1        0.1115
     18 C         142.4834  139.6707  168.5673 C.ar    1  UNL1        0.0238
     19 C         141.9540  139.5355  169.9643 C.ar    1  UNL1        0.0313
     20 C         140.5231  139.8743  170.2601 C.ar    1  UNL1        0.1425
     21 F         139.9938  139.7392  171.6571 F       1  UNL1       -0.2041
     22 C         139.6214  140.3482  169.1590 C.ar    1  UNL1        0.0608
     23 C         140.1507  140.4833  167.7620 C.ar    1  UNL1        0.1599
     24 F         139.2491  140.9572  166.6609 F       1  UNL1       -0.2025
     25 C         141.4546  137.0203  155.9466 C.3     1  UNL1        0.0437
     26 C         142.5558  136.0803  155.5543 C.3     1  UNL1        0.0768
     27 N         142.3012  134.6027  155.5122 N.3     1  UNL1       -0.2737
     28 C         141.4963  133.8759  154.4759 C.3     1  UNL1        0.0721
     29 C         141.5044  132.4165  154.8221 C.3     1  UNL1        0.0187
     30 C         142.3145  132.2413  156.0725 C.3     1  UNL1        0.0174
     31 C         142.8069  133.5924  156.4989 C.3     1  UNL1        0.0576
     32 C         143.6559  133.8824  157.7010 C.3     1  UNL1        0.0173
@<TRIPOS>BOND
     1    11    12    1
     2    12    13   ar
     3    13     1    1
     4     1     2   ar
     5     2     3   ar
     6     3     4   ar
     7     4     5   ar
     8     5     6   ar
     9     6    25    1
    10    25    26    1
    11    26    27    1
    12    27    28    1
    13    28    29    1
    14    29    30    1
    15    30    31    1
    16    31    32    1
    17     6     7   ar
    18     7     8   ar
    19     8     9   ar
    20     9    10   ar
    21    13    14   ar
    22    14    15   ar
    23    15    16   ar
    24    16    17    1
    25    17    18   ar
    26    18    19   ar
    27    19    20   ar
    28    20    21    1
    29    20    22   ar
    30    22    23   ar
    31    23    24    1
    32    16    12   ar
    33    23    17   ar
    34    10     1   ar
    35     9     4   ar
    36    31    27    1
@<TRIPOS>MOLECULE
*****
 32 36 0 0 0
SMALL
GASTEIGER

@<TRIPOS>ATOM
      1 C         142.7395  142.6840  162.2948 C.ar    1  UNL1        0.1018
      2 C         143.5506  143.4628  163.2876 C.ar    1  UNL1        0.0208
      3 C         143.6888  142.9672  164.6966 C.ar    1  UNL1        0.0031
      4 C         143.0158  141.6929  165.1128 C.ar    1  UNL1        0.0174
      5 C         143.1540  141.1973  166.5218 C.ar    1  UNL1       -0.0027
      6 C         142.4811  139.9230  166.9381 C.ar    1  UNL1       -0.0207
      7 C         141.6700  139.1442  165.9452 C.ar    1  UNL1       -0.0027
      8 C         141.5318  139.6398  164.5362 C.ar    1  UNL1        0.0188
      9 C         142.2048  140.9141  164.1200 C.ar    1  UNL1        0.0813
     10 N         142.0666  141.4097  162.7110 N.ar    1  UNL1       -0.2437
     11 C         139.9815  143.7101  160.8841 C.3     1  UNL1        0.0539
     12 C         141.3336  143.6512  160.2373 C.ar    1  UNL1        0.0833
     13 C         142.6013  143.1796  160.8857 C.ar    1  UNL1        0.1355
     14 N         143.7066  143.2905  159.8777 N.ar    1  UNL1       -0.1273
     15 N         143.1220  143.8307  158.6064 N.ar    1  UNL1       -0.0598
     16 N         141.6553  144.0536  158.8286 N.ar    1  UNL1       -0.2122
     17 C         140.6815  144.5856  157.8194 C.ar    1  UNL1        0.1115
     18 C         140.6091  146.0597  157.5515 C.ar    1  UNL1        0.0238
     19 C         139.6353  146.5917  156.5422 C.ar    1  UNL1        0.0313
     20 C         138.7338  145.6495  155.8008 C.ar    1  UNL1        0.1425
     21 F         137.7599  146.1814  154.7916 F       1  UNL1       -0.2041
     22 C         138.8062  144.1753  156.0687 C.ar    1  UNL1        0.0608
     23 C         139.7800  143.6434  157.0780 C.ar    1  UNL1        0.1599
     24 F         139.8524  142.1693  157.3459 F       1  UNL1       -0.2025
     25 C         142.6193  139.4274  168.3470 C.3     1  UNL1        0.0437
     26 C         141.5996  139.8079  169.3793 C.3     1  UNL1        0.0768
     27 N         141.3073  141.2545  169.6472 N.3     1  UNL1       -0.2737
     28 C         139.9461  141.8811  169.7154 C.3     1  UNL1        0.0721
     29 C         140.1224  143.3424  170.0043 C.3     1  UNL1        0.0187
     30 C         141.5926  143.6190  170.1147 C.3     1  UNL1        0.0174
     31 C         142.3249  142.3286  169.8940 C.3     1  UNL1        0.0576
     32 C         143.8134  142.1446  169.9162 C.3     1  UNL1        0.0173
@<TRIPOS>BOND
     1    11    12    1
     2    12    13   ar
     3    13     1    1
     4     1     2   ar
     5     2     3   ar
     6     3     4   ar
     7     4     5   ar
     8     5     6   ar
     9     6    25    1
    10    25    26    1
    11    26    27    1
    12    27    28    1
    13    28    29    1
    14    29    30    1
    15    30    31    1
    16    31    32    1
    17     6     7   ar
    18     7     8   ar
    19     8     9   ar
    20     9    10   ar
    21    13    14   ar
    22    14    15   ar
    23    15    16   ar
    24    16    17    1
    25    17    18   ar
    26    18    19   ar
    27    19    20   ar
    28    20    21    1
    29    20    22   ar
    30    22    23   ar
    31    23    24    1
    32    16    12   ar
    33    23    17   ar
    34    10     1   ar
    35     9     4   ar
    36    31    27    1
@<TRIPOS>MOLECULE
*****
 32 36 0 0 0
SMALL
GASTEIGER

@<TRIPOS>ATOM
      1 C         141.7909  142.9131  162.4526 C.ar    1  UNL1        0.1018
      2 C         141.8521  143.9428  163.5415 C.ar    1  UNL1        0.0208
      3 C         141.3933  143.5973  164.9271 C.ar    1  UNL1        0.0031
      4 C         140.8731  142.2220  165.2238 C.ar    1  UNL1        0.0174
      5 C         140.4142  141.8765  166.6095 C.ar    1  UNL1       -0.0027
      6 C         139.8941  140.5012  166.9063 C.ar    1  UNL1       -0.0207
      7 C         139.8329  139.4714  165.8172 C.ar    1  UNL1       -0.0027
      8 C         140.2918  139.8169  164.4316 C.ar    1  UNL1        0.0188
      9 C         140.8119  141.1922  164.1349 C.ar    1  UNL1        0.0813
     10 N         141.2708  141.5378  162.7493 N.ar    1  UNL1       -0.2437
     11 C         143.7710  141.1144  160.5834 C.3     1  UNL1        0.0539
     12 C         143.1600  142.4318  160.2077 C.ar    1  UNL1        0.0833
     13 C         142.2498  143.2586  161.0669 C.ar    1  UNL1        0.1355
     14 N         141.8791  144.4914  160.2971 N.ar    1  UNL1       -0.1273
     15 N         142.5602  144.4266  158.9622 N.ar    1  UNL1       -0.0598
     16 N         143.3518  143.1537  158.9070 N.ar    1  UNL1       -0.2122
     17 C         144.1883  142.6849  157.7535 C.ar    1  UNL1        0.1115
     18 C         145.6820  142.6352  157.8816 C.ar    1  UNL1        0.0238
     19 C         146.5186  142.1665  156.7282 C.ar    1  UNL1        0.0313
     20 C         145.8614  141.7475  155.4466 C.ar    1  UNL1        0.1425
     21 F         146.6979  141.2788  154.2931 F       1  UNL1       -0.2041
     22 C         144.3677  141.7972  155.3184 C.ar    1  UNL1        0.0608
     23 C         143.5311  142.2659  156.4719 C.ar    1  UNL1        0.1599
     24 F         142.0374  142.3157  156.3437 F       1  UNL1       -0.2025
     25 C         139.4352  140.1557  168.2919 C.3     1  UNL1        0.0437
     26 C         140.4396  139.9743  169.3912 C.3     1  UNL1        0.0768
     27 N         141.4781  141.0277  169.6396 N.3     1  UNL1       -0.2737
     28 C         142.9524  140.8857  169.4020 C.3     1  UNL1        0.0721
     29 C         143.6102  142.1783  169.7848 C.3     1  UNL1        0.0187
     30 C         142.5424  143.1192  170.2589 C.3     1  UNL1        0.0174
     31 C         141.2247  142.4080  170.1692 C.3     1  UNL1        0.0576
     32 C         139.8884  142.9773  170.5433 C.3     1  UNL1        0.0173
@<TRIPOS>BOND
     1    11    12    1
     2    12    13   ar
     3    13     1    1
     4     1     2   ar
     5     2     3   ar
     6     3     4   ar
     7     4     5   ar
     8     5     6   ar
     9     6    25    1
    10    25    26    1
    11    26    27    1
    12    27    28    1
    13    28    29    1
    14    29    30    1
    15    30    31    1
    16    31    32    1
    17     6     7   ar
    18     7     8   ar
    19     8     9   ar
    20     9    10   ar
    21    13    14   ar
    22    14    15   ar
    23    15    16   ar
    24    16    17    1
    25    17    18   ar
    26    18    19   ar
    27    19    20   ar
    28    20    21    1
    29    20    22   ar
    30    22    23   ar
    31    23    24    1
    32    16    12   ar
    33    23    17   ar
    34    10     1   ar
    35     9     4   ar
    36    31    27    1
@<TRIPOS>MOLECULE
*****
 32 36 0 0 0
SMALL
GASTEIGER

@<TRIPOS>ATOM
      1 C         140.4710  139.8482  158.7410 C.ar    1  UNL1        0.1018
      2 C         141.8552  139.4235  159.1328 C.ar    1  UNL1        0.0208
      3 C         142.4950  138.2433  158.4637 C.ar    1  UNL1        0.0031
      4 C         141.7507  137.4878  157.4030 C.ar    1  UNL1        0.0174
      5 C         142.3906  136.3075  156.7339 C.ar    1  UNL1       -0.0027
      6 C         141.6463  135.5521  155.6732 C.ar    1  UNL1       -0.0207
      7 C         140.2620  135.9769  155.2814 C.ar    1  UNL1       -0.0027
      8 C         139.6221  137.1571  155.9505 C.ar    1  UNL1        0.0188
      9 C         140.3665  137.9125  157.0112 C.ar    1  UNL1        0.0813
     10 N         139.7266  139.0927  157.6803 N.ar    1  UNL1       -0.2437
     11 C         140.6420  140.5785  161.9170 C.3     1  UNL1        0.0539
     12 C         139.9097  141.3641  160.8699 C.ar    1  UNL1        0.0833
     13 C         139.8310  141.0285  159.4101 C.ar    1  UNL1        0.1355
     14 N         139.0001  142.0802  158.7367 N.ar    1  UNL1       -0.1273
     15 N         138.5652  143.0659  159.7804 N.ar    1  UNL1       -0.0598
     16 N         139.1274  142.6233  161.0989 N.ar    1  UNL1       -0.2122
     17 C         138.9401  143.3180  162.4150 C.ar    1  UNL1        0.1115
     18 C         139.8586  144.4360  162.8104 C.ar    1  UNL1        0.0238
     19 C         139.6713  145.1307  164.1266 C.ar    1  UNL1        0.0313
     20 C         138.5655  144.7073  165.0474 C.ar    1  UNL1        0.1425
     21 F         138.3782  145.4020  166.3636 F       1  UNL1       -0.2041
     22 C         137.6470  143.5893  164.6520 C.ar    1  UNL1        0.0608
     23 C         137.8343  142.8946  163.3358 C.ar    1  UNL1        0.1599
     24 F         136.9157  141.7766  162.9405 F       1  UNL1       -0.2025
     25 C         142.2862  134.3719  155.0041 C.3     1  UNL1        0.0437
     26 C         142.1517  133.0045  155.6061 C.3     1  UNL1        0.0768
     27 N         143.2334  132.4667  156.4952 N.3     1  UNL1       -0.2737
     28 C         144.2513  133.2814  157.2370 C.3     1  UNL1        0.0721
     29 C         145.1341  132.3380  157.9989 C.3     1  UNL1        0.0187
     30 C         144.6618  130.9403  157.7281 C.3     1  UNL1        0.0174
     31 C         143.4871  131.0198  156.7988 C.3     1  UNL1        0.0576
     32 C         142.7036  129.8567  156.2665 C.3     1  UNL1        0.0173
@<TRIPOS>BOND
     1    11    12    1
     2    12    13   ar
     3    13     1    1
     4     1     2   ar
     5     2     3   ar
     6     3     4   ar
     7     4     5   ar
     8     5     6   ar
     9     6    25    1
    10    25    26    1
    11    26    27    1
    12    27    28    1
    13    28    29    1
    14    29    30    1
    15    30    31    1
    16    31    32    1
    17     6     7   ar
    18     7     8   ar
    19     8     9   ar
    20     9    10   ar
    21    13    14   ar
    22    14    15   ar
    23    15    16   ar
    24    16    17    1
    25    17    18   ar
    26    18    19   ar
    27    19    20   ar
    28    20    21    1
    29    20    22   ar
    30    22    23   ar
    31    23    24    1
    32    16    12   ar
    33    23    17   ar
    34    10     1   ar
    35     9     4   ar
    36    31    27    1
@<TRIPOS>MOLECULE
*****
 32 36 0 0 0
SMALL
GASTEIGER

@<TRIPOS>ATOM
      1 C         138.3176  142.1281  159.0534 C.ar    1  UNL1        0.1018
      2 C         138.6389  140.6634  159.0880 C.ar    1  UNL1        0.0208
      3 C         138.6898  139.9375  160.3997 C.ar    1  UNL1        0.0031
      4 C         138.4195  140.6764  161.6768 C.ar    1  UNL1        0.0174
      5 C         138.4705  139.9505  162.9885 C.ar    1  UNL1       -0.0027
      6 C         138.2001  140.6894  164.2656 C.ar    1  UNL1       -0.0207
      7 C         137.8788  142.1543  164.2309 C.ar    1  UNL1       -0.0027
      8 C         137.8279  142.8801  162.9192 C.ar    1  UNL1        0.0188
      9 C         138.0982  142.1412  161.6422 C.ar    1  UNL1        0.0813
     10 N         138.0472  142.8670  160.3305 N.ar    1  UNL1       -0.2437
     11 C         140.5583  144.2171  157.9288 C.3     1  UNL1        0.0539
     12 C         139.2966  143.8142  157.2248 C.ar    1  UNL1        0.0833
     13 C         138.2666  142.8540  157.7417 C.ar    1  UNL1        0.1355
     14 N         137.1767  142.7471  156.7166 N.ar    1  UNL1       -0.1273
     15 N         137.5331  143.6413  155.5662 N.ar    1  UNL1       -0.0598
     16 N         138.8433  144.3008  155.8803 N.ar    1  UNL1       -0.2122
     17 C         139.5721  145.2757  155.0037 C.ar    1  UNL1        0.1115
     18 C         140.4230  144.7773  153.8734 C.ar    1  UNL1        0.0238
     19 C         141.1518  145.7522  152.9968 C.ar    1  UNL1        0.0313
     20 C         141.0298  147.2255  153.2507 C.ar    1  UNL1        0.1425
     21 F         141.7587  148.2004  152.3741 F       1  UNL1       -0.2041
     22 C         140.1790  147.7239  154.3810 C.ar    1  UNL1        0.0608
     23 C         139.4501  146.7490  155.2576 C.ar    1  UNL1        0.1599
     24 F         138.5993  147.2475  156.3879 F       1  UNL1       -0.2025
     25 C         138.2511  139.9636  165.5772 C.3     1  UNL1        0.0437
     26 C         139.5484  139.8503  166.3218 C.3     1  UNL1        0.0768
     27 N         139.8169  140.7388  167.5001 N.3     1  UNL1       -0.2737
     28 C         139.5404  140.4061  168.9364 C.3     1  UNL1        0.0721
     29 C         139.9617  141.5777  169.7730 C.3     1  UNL1        0.0187
     30 C         140.4986  142.6345  168.8537 C.3     1  UNL1        0.0174
     31 C         140.4090  142.1160  167.4490 C.3     1  UNL1        0.0576
     32 C         140.8366  142.8465  166.2106 C.3     1  UNL1        0.0173
@<TRIPOS>BOND
     1    11    12    1
     2    12    13   ar
     3    13     1    1
     4     1     2   ar
     5     2     3   ar
     6     3     4   ar
     7     4     5   ar
     8     5     6   ar
     9     6    25    1
    10    25    26    1
    11    26    27    1
    12    27    28    1
    13    28    29    1
    14    29    30    1
    15    30    31    1
    16    31    32    1
    17     6     7   ar
    18     7     8   ar
    19     8     9   ar
    20     9    10   ar
    21    13    14   ar
    22    14    15   ar
    23    15    16   ar
    24    16    17    1
    25    17    18   ar
    26    18    19   ar
    27    19    20   ar
    28    20    21    1
    29    20    22   ar
    30    22    23   ar
    31    23    24    1
    32    16    12   ar
    33    23    17   ar
    34    10     1   ar
    35     9     4   ar
    36    31    27    1
