@<TRIPOS>MOLECULE
*****
 31 34 0 0 0
SMALL
GASTEIGER

@<TRIPOS>ATOM
      1 C         140.2720  144.3336  162.8100 C.ar    1  UNL1        0.0694
      2 C         141.6312  144.4240  162.1818 C.ar    1  UNL1        0.0858
      3 S         142.5576  143.5292  162.9507 S.2     1  UNL1       -0.0709
      4 C         141.7709  142.8859  164.0541 C.ar    1  UNL1        0.0598
      5 C         140.3584  143.3830  163.9671 C.ar    1  UNL1       -0.0026
      6 C         139.3334  142.9059  164.9528 C.3     1  UNL1        0.0879
      7 C         139.7209  141.9316  166.0255 C.3     1  UNL1        0.1136
      8 N         141.1334  141.4345  166.1124 N.4     1  UNL1        0.3010
      9 C         142.4997  140.8524  166.3231 C.3     1  UNL1        0.1091
     10 C         142.4333  139.9294  167.5037 C.3     1  UNL1        0.0671
     11 C         141.0260  139.9410  168.0226 C.3     1  UNL1        0.0671
     12 C         140.2226  140.8712  167.1627 C.3     1  UNL1        0.1091
     13 C         142.1584  141.9116  165.1267 C.3     1  UNL1        0.1422
     14 N         141.9993  145.2619  160.9934 N.am    1  UNL1       -0.2629
     15 C         141.5071  144.8839  159.6277 C.2     1  UNL1        0.3085
     16 O         140.6468  143.6679  159.4506 O.2     1  UNL1       -0.2521
     17 N         141.8752  145.7219  158.4393 N.am    1  UNL1       -0.2680
     18 H         142.5639  146.0600  161.1096 H       1  UNL1        0.1569
     19 H         142.4398  146.5199  158.5557 H       1  UNL1        0.1564
     20 C         141.3830  145.3439  157.0737 C.ar    1  UNL1        0.0516
     21 C         142.1524  144.3579  156.2456 C.ar    1  UNL1        0.0156
     22 C         141.6603  143.9799  154.8800 C.ar    1  UNL1        0.0127
     23 C         140.3988  144.5879  154.3425 C.ar    1  UNL1        0.0578
     24 CL        139.9067  144.2099  152.9769 Cl      1  UNL1       -0.0822
     25 C         139.6293  145.5739  155.1706 C.ar    1  UNL1        0.0127
     26 C         140.1215  145.9519  156.5363 C.ar    1  UNL1        0.0156
     27 N         137.6862  144.4695  162.5964 N.am    1  UNL1       -0.3253
     28 C         139.0423  145.0654  162.3600 C.2     1  UNL1        0.2442
     29 O         139.1689  146.3930  161.6736 O.2     1  UNL1       -0.2703
     30 H         136.8792  144.9498  162.3011 H       1  UNL1        0.1453
     31 H         137.6032  143.5981  163.0470 H       1  UNL1        0.1453
@<TRIPOS>UNITY_ATOM_ATTR
8 1
charge 1
@<TRIPOS>BOND
     1    27    28   am
     2    28    29    2
     3    28     1    1
     4     1     2   ar
     5     2    14    1
     6    14    15   am
     7    15    16    2
     8    15    17   am
     9    17    20    1
    10    20    21   ar
    11    21    22   ar
    12    22    23   ar
    13    23    24    1
    14    23    25   ar
    15    25    26   ar
    16     2     3   ar
    17     3     4   ar
    18     4     5   ar
    19     5     6    1
    20     6     7    1
    21     7     8    1
    22     8     9    1
    23     9    10    1
    24    10    11    1
    25    11    12    1
    26     8    13    1
    27     5     1   ar
    28    12     8    1
    29    26    20   ar
    30    13     4    1
    31    27    30    1
    32    27    31    1
    33    14    18    1
    34    17    19    1
@<TRIPOS>MOLECULE
*****
 31 34 0 0 0
SMALL
GASTEIGER

@<TRIPOS>ATOM
      1 C         144.1276  140.3627  162.5213 C.ar    1  UNL1        0.0694
      2 C         143.6594  139.1849  163.3238 C.ar    1  UNL1        0.0858
      3 S         143.0945  138.1714  162.3732 S.2     1  UNL1       -0.0709
      4 C         143.2136  138.7228  160.9832 C.ar    1  UNL1        0.0598
      5 C         143.8520  140.0770  161.0748 C.ar    1  UNL1       -0.0026
      6 C         144.1000  140.8750  159.8292 C.3     1  UNL1        0.0879
      7 C         143.7095  140.3188  158.4919 C.3     1  UNL1        0.1136
      8 N         143.0710  138.9646  158.4004 N.4     1  UNL1        0.3010
      9 C         142.4275  137.6324  158.1534 C.3     1  UNL1        0.1091
     10 C         142.2142  137.4875  156.6757 C.3     1  UNL1        0.0671
     11 C         142.7260  138.7301  156.0094 C.3     1  UNL1        0.0671
     12 C         143.2556  139.6430  157.0753 C.3     1  UNL1        0.1091
     13 C         142.8231  138.1666  159.6460 C.3     1  UNL1        0.1422
     14 N         143.7417  139.0453  164.8150 N.am    1  UNL1       -0.2629
     15 C         142.8968  139.9157  165.6975 C.2     1  UNL1        0.3085
     16 O         141.9698  140.9256  165.0888 O.2     1  UNL1       -0.2521
     17 N         142.9791  139.7760  167.1887 N.am    1  UNL1       -0.2680
     18 H         144.3502  138.3825  165.2146 H       1  UNL1        0.1569
     19 H         143.5876  139.1132  167.5882 H       1  UNL1        0.1564
     20 C         142.1343  140.6463  168.0713 C.ar    1  UNL1        0.0516
     21 C         142.6597  141.9693  168.5441 C.ar    1  UNL1        0.0156
     22 C         141.8149  142.8396  169.4267 C.ar    1  UNL1        0.0127
     23 C         140.4448  142.3869  169.8363 C.ar    1  UNL1        0.0578
     24 CL        139.6000  143.2573  170.7189 Cl      1  UNL1       -0.0822
     25 C         139.9194  141.0639  169.3635 C.ar    1  UNL1        0.0127
     26 C         140.7642  140.1936  168.4809 C.ar    1  UNL1        0.0156
     27 N         143.9016  142.7667  163.4804 N.am    1  UNL1       -0.3253
     28 C         144.7602  141.6075  163.0693 C.2     1  UNL1        0.2442
     29 O         146.2514  141.6930  163.2061 O.2     1  UNL1       -0.2703
     30 H         144.3168  143.5837  163.8401 H       1  UNL1        0.1453
     31 H         142.9228  142.7105  163.3907 H       1  UNL1        0.1453
@<TRIPOS>UNITY_ATOM_ATTR
8 1
charge 1
@<TRIPOS>BOND
     1    27    28   am
     2    28    29    2
     3    28     1    1
     4     1     2   ar
     5     2    14    1
     6    14    15   am
     7    15    16    2
     8    15    17   am
     9    17    20    1
    10    20    21   ar
    11    21    22   ar
    12    22    23   ar
    13    23    24    1
    14    23    25   ar
    15    25    26   ar
    16     2     3   ar
    17     3     4   ar
    18     4     5   ar
    19     5     6    1
    20     6     7    1
    21     7     8    1
    22     8     9    1
    23     9    10    1
    24    10    11    1
    25    11    12    1
    26     8    13    1
    27     5     1   ar
    28    12     8    1
    29    26    20   ar
    30    13     4    1
    31    27    30    1
    32    27    31    1
    33    14    18    1
    34    17    19    1
@<TRIPOS>MOLECULE
*****
 31 34 0 0 0
SMALL
GASTEIGER

@<TRIPOS>ATOM
      1 C         140.1326  138.4606  162.5986 C.ar    1  UNL1        0.0694
      2 C         139.0915  139.1177  163.4556 C.ar    1  UNL1        0.0858
      3 S         138.1562  139.8686  162.5548 S.2     1  UNL1       -0.0709
      4 C         138.6194  139.6756  161.1412 C.ar    1  UNL1        0.0598
      5 C         139.8409  138.8054  161.1683 C.ar    1  UNL1       -0.0026
      6 C         140.5296  138.4395  159.8870 C.3     1  UNL1        0.0879
      7 C         139.9968  138.9438  158.5786 C.3     1  UNL1        0.1136
      8 N         138.7753  139.8140  158.5515 N.4     1  UNL1        0.3010
      9 C         137.5699  140.6878  158.3683 C.3     1  UNL1        0.1091
     10 C         137.4041  140.9468  156.9002 C.3     1  UNL1        0.0671
     11 C         138.5070  140.2331  156.1760 C.3     1  UNL1        0.0671
     12 C         139.3544  139.5330  157.1966 C.3     1  UNL1        0.1091
     13 C         138.0866  140.1799  159.8328 C.3     1  UNL1        0.1422
     14 N         139.0014  139.0378  164.9508 N.am    1  UNL1       -0.2629
     15 C         139.8781  139.9075  165.8024 C.2     1  UNL1        0.3085
     16 O         140.8447  140.8569  165.1588 O.2     1  UNL1       -0.2521
     17 N         139.7881  139.8276  167.2975 N.am    1  UNL1       -0.2680
     18 H         138.3670  138.4146  165.3731 H       1  UNL1        0.1569
     19 H         139.1536  139.2044  167.7199 H       1  UNL1        0.1564
     20 C         140.6647  140.6972  168.1492 C.ar    1  UNL1        0.0516
     21 C         141.9710  140.1696  168.6641 C.ar    1  UNL1        0.0156
     22 C         142.8476  141.0392  169.5158 C.ar    1  UNL1        0.0127
     23 C         142.4179  142.4363  169.8526 C.ar    1  UNL1        0.0578
     24 CL        143.2946  143.3058  170.7043 Cl      1  UNL1       -0.0822
     25 C         141.1116  142.9639  169.3376 C.ar    1  UNL1        0.0127
     26 C         140.2350  142.0943  168.4860 C.ar    1  UNL1        0.0156
     27 N         142.5510  137.5548  162.3137 N.am    1  UNL1       -0.3253
     28 C         141.2666  137.6083  163.0865 C.2     1  UNL1        0.2442
     29 O         141.1158  136.8096  164.3470 O.2     1  UNL1       -0.2703
     30 H         143.2952  136.9954  162.6339 H       1  UNL1        0.1453
     31 H         142.6499  138.0791  161.4863 H       1  UNL1        0.1453
@<TRIPOS>UNITY_ATOM_ATTR
8 1
charge 1
@<TRIPOS>BOND
     1    27    28   am
     2    28    29    2
     3    28     1    1
     4     1     2   ar
     5     2    14    1
     6    14    15   am
     7    15    16    2
     8    15    17   am
     9    17    20    1
    10    20    21   ar
    11    21    22   ar
    12    22    23   ar
    13    23    24    1
    14    23    25   ar
    15    25    26   ar
    16     2     3   ar
    17     3     4   ar
    18     4     5   ar
    19     5     6    1
    20     6     7    1
    21     7     8    1
    22     8     9    1
    23     9    10    1
    24    10    11    1
    25    11    12    1
    26     8    13    1
    27     5     1   ar
    28    12     8    1
    29    26    20   ar
    30    13     4    1
    31    27    30    1
    32    27    31    1
    33    14    18    1
    34    17    19    1
@<TRIPOS>MOLECULE
*****
 31 34 0 0 0
SMALL
GASTEIGER

@<TRIPOS>ATOM
      1 C         138.8854  141.6335  164.6697 C.ar    1  UNL1        0.0694
      2 C         139.2612  143.0389  164.3038 C.ar    1  UNL1        0.0858
      3 S         140.0836  143.6052  165.4231 S.2     1  UNL1       -0.0709
      4 C         140.2161  142.5498  166.4808 C.ar    1  UNL1        0.0598
      5 C         139.4756  141.3312  166.0152 C.ar    1  UNL1       -0.0026
      6 C         139.4345  140.1039  166.8765 C.3     1  UNL1        0.0879
      7 C         140.1338  140.0951  168.2035 C.3     1  UNL1        0.1136
      8 N         140.8743  141.3136  168.6691 N.4     1  UNL1        0.3010
      9 C         141.6505  142.4509  169.2643 C.3     1  UNL1        0.1091
     10 C         142.1761  142.0061  170.5969 C.3     1  UNL1        0.0671
     11 C         141.7248  140.5939  170.8253 C.3     1  UNL1        0.0671
     12 C         140.9202  140.1660  169.6339 C.3     1  UNL1        0.1091
     13 C         140.9155  142.5410  167.8078 C.3     1  UNL1        0.1422
     14 N         138.8812  143.7526  163.0404 N.am    1  UNL1       -0.2629
     15 C         139.7577  143.6485  161.8275 C.2     1  UNL1        0.3085
     16 O         141.0142  142.8308  161.8782 O.2     1  UNL1       -0.2521
     17 N         139.3777  144.3622  160.5641 N.am    1  UNL1       -0.2680
     18 H         138.0565  144.2893  163.0071 H       1  UNL1        0.1569
     19 H         138.5531  144.8989  160.5309 H       1  UNL1        0.1564
     20 C         140.2542  144.2582  159.3513 C.ar    1  UNL1        0.0516
     21 C         141.2461  145.3416  159.0477 C.ar    1  UNL1        0.0156
     22 C         142.1226  145.2376  157.8349 C.ar    1  UNL1        0.0127
     23 C         142.0071  144.0502  156.9257 C.ar    1  UNL1        0.0578
     24 CL        142.8837  143.9462  155.7129 Cl      1  UNL1       -0.0822
     25 C         141.0152  142.9667  157.2293 C.ar    1  UNL1        0.0127
     26 C         140.1388  143.0707  158.4421 C.ar    1  UNL1        0.0156
     27 N         136.7652  141.1582  163.2453 N.am    1  UNL1       -0.3253
     28 C         138.0637  140.6951  163.8364 C.2     1  UNL1        0.2442
     29 O         138.5406  139.2938  163.5943 O.2     1  UNL1       -0.2703
     30 H         136.2259  140.5424  162.6984 H       1  UNL1        0.1453
     31 H         136.4523  142.0781  163.4042 H       1  UNL1        0.1453
@<TRIPOS>UNITY_ATOM_ATTR
8 1
charge 1
@<TRIPOS>BOND
     1    27    28   am
     2    28    29    2
     3    28     1    1
     4     1     2   ar
     5     2    14    1
     6    14    15   am
     7    15    16    2
     8    15    17   am
     9    17    20    1
    10    20    21   ar
    11    21    22   ar
    12    22    23   ar
    13    23    24    1
    14    23    25   ar
    15    25    26   ar
    16     2     3   ar
    17     3     4   ar
    18     4     5   ar
    19     5     6    1
    20     6     7    1
    21     7     8    1
    22     8     9    1
    23     9    10    1
    24    10    11    1
    25    11    12    1
    26     8    13    1
    27     5     1   ar
    28    12     8    1
    29    26    20   ar
    30    13     4    1
    31    27    30    1
    32    27    31    1
    33    14    18    1
    34    17    19    1
@<TRIPOS>MOLECULE
*****
 31 34 0 0 0
SMALL
GASTEIGER

@<TRIPOS>ATOM
      1 C         140.0337  143.8454  161.7668 C.ar    1  UNL1        0.0694
      2 C         140.5418  142.4750  162.1043 C.ar    1  UNL1        0.0858
      3 S         141.3358  141.9739  160.9345 S.2     1  UNL1       -0.0709
      4 C         141.3184  143.0346  159.8740 C.ar    1  UNL1        0.0598
      5 C         140.5137  144.1913  160.3884 C.ar    1  UNL1       -0.0026
      6 C         140.3219  145.4100  159.5351 C.3     1  UNL1        0.0879
      7 C         140.9349  145.4720  158.1675 C.3     1  UNL1        0.1136
      8 N         141.7396  144.3154  157.6531 N.4     1  UNL1        0.3010
      9 C         142.5653  143.2423  157.0075 C.3     1  UNL1        0.1091
     10 C         142.9704  143.7252  155.6463 C.3     1  UNL1        0.0671
     11 C         142.3951  145.0966  155.4507 C.3     1  UNL1        0.0671
     12 C         141.6344  145.4614  156.6910 C.3     1  UNL1        0.1091
     13 C         141.9313  143.0967  158.5063 C.3     1  UNL1        0.1422
     14 N         140.2987  141.7356  163.3865 N.am    1  UNL1       -0.2629
     15 C         140.9117  142.2278  164.6640 C.2     1  UNL1        0.3085
     16 O         141.7679  143.4594  164.6592 O.2     1  UNL1       -0.2521
     17 N         140.6685  141.4884  165.9462 N.am    1  UNL1       -0.2680
     18 H         139.7367  140.9272  163.3897 H       1  UNL1        0.1569
     19 H         140.1066  140.6800  165.9493 H       1  UNL1        0.1564
     20 C         141.2816  141.9806  167.2237 C.ar    1  UNL1        0.0516
     21 C         140.4517  142.7555  168.2039 C.ar    1  UNL1        0.0156
     22 C         141.0647  143.2477  169.4814 C.ar    1  UNL1        0.0127
     23 C         142.5075  142.9649  169.7786 C.ar    1  UNL1        0.0578
     24 CL        143.1205  143.4572  171.0562 Cl      1  UNL1       -0.0822
     25 C         143.3374  142.1900  168.7985 C.ar    1  UNL1        0.0127
     26 C         142.7243  141.6978  167.5210 C.ar    1  UNL1        0.0156
     27 N         139.8390  145.5329  163.7327 N.am    1  UNL1       -0.3253
     28 C         139.1932  144.7170  162.6523 C.2     1  UNL1        0.2442
     29 O         137.7071  144.7725  162.4574 O.2     1  UNL1       -0.2703
     30 H         139.2874  146.1049  164.3139 H       1  UNL1        0.1453
     31 H         140.8145  145.4964  163.8606 H       1  UNL1        0.1453
@<TRIPOS>UNITY_ATOM_ATTR
8 1
charge 1
@<TRIPOS>BOND
     1    27    28   am
     2    28    29    2
     3    28     1    1
     4     1     2   ar
     5     2    14    1
     6    14    15   am
     7    15    16    2
     8    15    17   am
     9    17    20    1
    10    20    21   ar
    11    21    22   ar
    12    22    23   ar
    13    23    24    1
    14    23    25   ar
    15    25    26   ar
    16     2     3   ar
    17     3     4   ar
    18     4     5   ar
    19     5     6    1
    20     6     7    1
    21     7     8    1
    22     8     9    1
    23     9    10    1
    24    10    11    1
    25    11    12    1
    26     8    13    1
    27     5     1   ar
    28    12     8    1
    29    26    20   ar
    30    13     4    1
    31    27    30    1
    32    27    31    1
    33    14    18    1
    34    17    19    1
@<TRIPOS>MOLECULE
*****
 31 34 0 0 0
SMALL
GASTEIGER

@<TRIPOS>ATOM
      1 C         139.3844  140.3952  163.2176 C.ar    1  UNL1        0.0694
      2 C         140.6850  140.5034  162.4780 C.ar    1  UNL1        0.0858
      3 S         141.7968  140.4299  163.4823 S.2     1  UNL1       -0.0709
      4 C         141.1832  140.2764  164.8425 C.ar    1  UNL1        0.0598
      5 C         139.6923  140.2549  164.6789 C.ar    1  UNL1       -0.0026
      6 C         138.8078  140.1105  165.8816 C.3     1  UNL1        0.0879
      7 C         139.4141  139.9874  167.2481 C.3     1  UNL1        0.1136
      8 N         140.9050  140.0088  167.4118 N.4     1  UNL1        0.3010
      9 C         142.3709  140.0139  167.7296 C.3     1  UNL1        0.1091
     10 C         142.5237  139.8673  169.2146 C.3     1  UNL1        0.0671
     11 C         141.1523  139.7715  169.8145 C.3     1  UNL1        0.0671
     12 C         140.1518  139.8590  168.7003 C.3     1  UNL1        0.1091
     13 C         141.7896  140.1533  166.2090 C.3     1  UNL1        0.1422
     14 N         140.8457  140.6579  160.9947 N.am    1  UNL1       -0.2629
     15 C         140.9911  139.4439  160.1256 C.2     1  UNL1        0.3085
     16 O         140.9759  138.0756  160.7399 O.2     1  UNL1       -0.2521
     17 N         141.1518  139.5984  158.6423 N.am    1  UNL1       -0.2680
     18 H         140.8556  141.5559  160.5915 H       1  UNL1        0.1569
     19 H         141.1617  140.4965  158.2391 H       1  UNL1        0.1564
     20 C         141.2972  138.3845  157.7732 C.ar    1  UNL1        0.0516
     21 C         140.1706  137.9650  156.8761 C.ar    1  UNL1        0.0156
     22 C         140.3160  136.7512  156.0071 C.ar    1  UNL1        0.0127
     23 C         141.5881  135.9568  156.0350 C.ar    1  UNL1        0.0578
     24 CL        141.7335  134.7429  155.1659 Cl      1  UNL1       -0.0822
     25 C         142.7147  136.3762  156.9321 C.ar    1  UNL1        0.0127
     26 C         142.5693  137.5901  157.8011 C.ar    1  UNL1        0.0156
     27 N         136.9249  141.2321  163.2389 N.am    1  UNL1       -0.3253
     28 C         138.0161  140.4226  162.6034 C.2     1  UNL1        0.2442
     29 O         137.7392  139.6405  161.3539 O.2     1  UNL1       -0.2703
     30 H         136.0268  141.2501  162.8359 H       1  UNL1        0.1453
     31 H         137.1067  141.7455  164.0591 H       1  UNL1        0.1453
@<TRIPOS>UNITY_ATOM_ATTR
8 1
charge 1
@<TRIPOS>BOND
     1    27    28   am
     2    28    29    2
     3    28     1    1
     4     1     2   ar
     5     2    14    1
     6    14    15   am
     7    15    16    2
     8    15    17   am
     9    17    20    1
    10    20    21   ar
    11    21    22   ar
    12    22    23   ar
    13    23    24    1
    14    23    25   ar
    15    25    26   ar
    16     2     3   ar
    17     3     4   ar
    18     4     5   ar
    19     5     6    1
    20     6     7    1
    21     7     8    1
    22     8     9    1
    23     9    10    1
    24    10    11    1
    25    11    12    1
    26     8    13    1
    27     5     1   ar
    28    12     8    1
    29    26    20   ar
    30    13     4    1
    31    27    30    1
    32    27    31    1
    33    14    18    1
    34    17    19    1
@<TRIPOS>MOLECULE
*****
 31 34 0 0 0
SMALL
GASTEIGER

@<TRIPOS>ATOM
      1 C         142.4576  143.7749  164.0288 C.ar    1  UNL1        0.0694
      2 C         141.0934  144.2838  163.6678 C.ar    1  UNL1        0.0858
      3 S         140.1104  143.7066  164.6427 S.2     1  UNL1       -0.0709
      4 C         140.8671  142.8409  165.6062 C.ar    1  UNL1        0.0598
      5 C         142.3176  142.8831  165.2267 C.ar    1  UNL1       -0.0026
      6 C         143.3237  142.1041  166.0211 C.3     1  UNL1        0.0879
      7 C         142.8791  141.2828  167.1949 C.3     1  UNL1        0.1136
      8 N         141.4285  141.2405  167.5744 N.4     1  UNL1        0.3010
      9 C         140.0197  141.1019  168.0705 C.3     1  UNL1        0.1091
     10 C         140.0353  140.1894  169.2609 C.3     1  UNL1        0.0671
     11 C         141.4536  139.7640  169.5004 C.3     1  UNL1        0.0671
     12 C         142.3147  140.4137  168.4581 C.3     1  UNL1        0.1091
     13 C         140.4225  142.0196  166.7800 C.3     1  UNL1        0.1422
     14 N         140.7693  145.2078  162.5315 N.am    1  UNL1       -0.2629
     15 C         140.9349  144.7417  161.1153 C.2     1  UNL1        0.3085
     16 O         141.4247  143.3519  160.8356 O.2     1  UNL1       -0.2521
     17 N         140.6107  145.6657  159.9790 N.am    1  UNL1       -0.2680
     18 H         140.4478  146.1200  162.7151 H       1  UNL1        0.1569
     19 H         140.2893  146.5779  160.1627 H       1  UNL1        0.1564
     20 C         140.7763  145.1997  158.5629 C.ar    1  UNL1        0.0516
     21 C         139.8200  144.1983  157.9862 C.ar    1  UNL1        0.0156
     22 C         139.9856  143.7324  156.5701 C.ar    1  UNL1        0.0127
     23 C         141.1075  144.2679  155.7306 C.ar    1  UNL1        0.0578
     24 CL        141.2730  143.8019  154.3145 Cl      1  UNL1       -0.0822
     25 C         142.0638  145.2693  156.3073 C.ar    1  UNL1        0.0127
     26 C         141.8982  145.7352  157.7234 C.ar    1  UNL1        0.0156
     27 N         144.0283  145.5138  162.9066 N.am    1  UNL1       -0.3253
     28 C         143.7370  144.1007  163.3167 C.2     1  UNL1        0.2442
     29 O         144.7250  143.0132  163.0147 O.2     1  UNL1       -0.2703
     30 H         144.8680  145.7276  162.4393 H       1  UNL1        0.1453
     31 H         143.3798  146.2275  163.1049 H       1  UNL1        0.1453
@<TRIPOS>UNITY_ATOM_ATTR
8 1
charge 1
@<TRIPOS>BOND
     1    27    28   am
     2    28    29    2
     3    28     1    1
     4     1     2   ar
     5     2    14    1
     6    14    15   am
     7    15    16    2
     8    15    17   am
     9    17    20    1
    10    20    21   ar
    11    21    22   ar
    12    22    23   ar
    13    23    24    1
    14    23    25   ar
    15    25    26   ar
    16     2     3   ar
    17     3     4   ar
    18     4     5   ar
    19     5     6    1
    20     6     7    1
    21     7     8    1
    22     8     9    1
    23     9    10    1
    24    10    11    1
    25    11    12    1
    26     8    13    1
    27     5     1   ar
    28    12     8    1
    29    26    20   ar
    30    13     4    1
    31    27    30    1
    32    27    31    1
    33    14    18    1
    34    17    19    1
@<TRIPOS>MOLECULE
*****
 31 34 0 0 0
SMALL
GASTEIGER

@<TRIPOS>ATOM
      1 C         139.9569  143.6785  162.1929 C.ar    1  UNL1        0.0694
      2 C         141.2178  143.4890  161.4026 C.ar    1  UNL1        0.0858
      3 S         141.7084  142.0916  161.6407 S.2     1  UNL1       -0.0709
      4 C         140.7508  141.4176  162.5782 C.ar    1  UNL1        0.0598
      5 C         139.6684  142.3983  162.9194 C.ar    1  UNL1       -0.0026
      6 C         138.5598  141.9989  163.8476 C.3     1  UNL1        0.0879
      7 C         138.5337  140.6187  164.4346 C.3     1  UNL1        0.1136
      8 N         139.6161  139.6380  164.0933 N.4     1  UNL1        0.3010
      9 C         140.6242  138.5552  163.8454 C.3     1  UNL1        0.1091
     10 C         140.2084  137.3464  164.6301 C.3     1  UNL1        0.0671
     11 C         138.9434  137.6820  165.3630 C.3     1  UNL1        0.0671
     12 C         138.5774  139.0983  165.0313 C.3     1  UNL1        0.1091
     13 C         140.7247  140.0374  163.1651 C.3     1  UNL1        0.1422
     14 N         141.8729  144.5164  160.5278 N.am    1  UNL1       -0.2629
     15 C         141.5532  144.5681  159.0632 C.2     1  UNL1        0.3085
     16 O         140.5784  143.5924  158.4734 O.2     1  UNL1       -0.2521
     17 N         142.2083  145.5955  158.1884 N.am    1  UNL1       -0.2680
     18 H         142.5126  145.1568  160.9150 H       1  UNL1        0.1569
     19 H         142.8480  146.2359  158.5755 H       1  UNL1        0.1564
     20 C         141.8887  145.6473  156.7238 C.ar    1  UNL1        0.0516
     21 C         142.7110  144.8584  155.7484 C.ar    1  UNL1        0.0156
     22 C         142.3914  144.9101  154.2838 C.ar    1  UNL1        0.0127
     23 C         141.2494  145.7507  153.7946 C.ar    1  UNL1        0.0578
     24 CL        140.9299  145.8024  152.3299 Cl      1  UNL1       -0.0822
     25 C         140.4271  146.5396  154.7699 C.ar    1  UNL1        0.0127
     26 C         140.7467  146.4879  156.2345 C.ar    1  UNL1        0.0156
     27 N         137.6525  144.8408  162.4912 N.am    1  UNL1       -0.3253
     28 C         139.1299  144.9288  162.2471 C.2     1  UNL1        0.2442
     29 O         139.7804  146.2669  162.0573 O.2     1  UNL1       -0.2703
     30 H         137.1097  145.6614  162.5267 H       1  UNL1        0.1453
     31 H         137.2256  143.9625  162.6158 H       1  UNL1        0.1453
@<TRIPOS>UNITY_ATOM_ATTR
8 1
charge 1
@<TRIPOS>BOND
     1    27    28   am
     2    28    29    2
     3    28     1    1
     4     1     2   ar
     5     2    14    1
     6    14    15   am
     7    15    16    2
     8    15    17   am
     9    17    20    1
    10    20    21   ar
    11    21    22   ar
    12    22    23   ar
    13    23    24    1
    14    23    25   ar
    15    25    26   ar
    16     2     3   ar
    17     3     4   ar
    18     4     5   ar
    19     5     6    1
    20     6     7    1
    21     7     8    1
    22     8     9    1
    23     9    10    1
    24    10    11    1
    25    11    12    1
    26     8    13    1
    27     5     1   ar
    28    12     8    1
    29    26    20   ar
    30    13     4    1
    31    27    30    1
    32    27    31    1
    33    14    18    1
    34    17    19    1
@<TRIPOS>MOLECULE
*****
 31 34 0 0 0
SMALL
GASTEIGER

@<TRIPOS>ATOM
      1 C         138.4170  140.5715  161.3611 C.ar    1  UNL1        0.0694
      2 C         138.8208  139.3879  162.1895 C.ar    1  UNL1        0.0858
      3 S         139.3791  138.3453  161.2669 S.2     1  UNL1       -0.0709
      4 C         139.3203  138.8846  159.8683 C.ar    1  UNL1        0.0598
      5 C         138.7257  140.2605  159.9266 C.ar    1  UNL1       -0.0026
      6 C         138.5423  141.0522  158.6659 C.3     1  UNL1        0.0879
      7 C         138.9534  140.4681  157.3469 C.3     1  UNL1        0.1136
      8 N         139.5480  139.0922  157.2886 N.4     1  UNL1        0.3010
      9 C         140.1531  137.7364  157.0749 C.3     1  UNL1        0.1091
     10 C         140.4052  137.5677  155.6059 C.3     1  UNL1        0.0671
     11 C         139.9560  138.8192  154.9117 C.3     1  UNL1        0.0671
     12 C         139.4262  139.7614  155.9517 C.3     1  UNL1        0.1091
     13 C         139.7314  138.3005  158.5493 C.3     1  UNL1        0.1422
     14 N         138.6894  139.2680  163.6789 N.am    1  UNL1       -0.2629
     15 C         139.7055  139.9110  164.5756 C.2     1  UNL1        0.3085
     16 O         140.8530  140.6739  163.9829 O.2     1  UNL1       -0.2521
     17 N         139.5741  139.7911  166.0650 N.am    1  UNL1       -0.2680
     18 H         137.9362  138.7673  164.0679 H       1  UNL1        0.1569
     19 H         138.8209  139.2904  166.4540 H       1  UNL1        0.1564
     20 C         140.5902  140.4341  166.9618 C.ar    1  UNL1        0.0516
     21 C         141.7885  139.6551  167.4169 C.ar    1  UNL1        0.0156
     22 C         142.8046  140.2980  168.3137 C.ar    1  UNL1        0.0127
     23 C         142.6223  141.7199  168.7553 C.ar    1  UNL1        0.0578
     24 CL        143.6384  142.3628  169.6521 Cl      1  UNL1       -0.0822
     25 C         141.4240  142.4989  168.3002 C.ar    1  UNL1        0.0127
     26 C         140.4079  141.8559  167.4034 C.ar    1  UNL1        0.0156
     27 N         138.1486  143.1523  161.2274 N.am    1  UNL1       -0.3253
     28 C         137.8109  141.8431  161.8769 C.2     1  UNL1        0.2442
     29 O         136.8671  141.8052  163.0420 O.2     1  UNL1       -0.2703
     30 H         137.7508  143.9868  161.5659 H       1  UNL1        0.1453
     31 H         138.7681  143.1771  160.4627 H       1  UNL1        0.1453
@<TRIPOS>UNITY_ATOM_ATTR
8 1
charge 1
@<TRIPOS>BOND
     1    27    28   am
     2    28    29    2
     3    28     1    1
     4     1     2   ar
     5     2    14    1
     6    14    15   am
     7    15    16    2
     8    15    17   am
     9    17    20    1
    10    20    21   ar
    11    21    22   ar
    12    22    23   ar
    13    23    24    1
    14    23    25   ar
    15    25    26   ar
    16     2     3   ar
    17     3     4   ar
    18     4     5   ar
    19     5     6    1
    20     6     7    1
    21     7     8    1
    22     8     9    1
    23     9    10    1
    24    10    11    1
    25    11    12    1
    26     8    13    1
    27     5     1   ar
    28    12     8    1
    29    26    20   ar
    30    13     4    1
    31    27    30    1
    32    27    31    1
    33    14    18    1
    34    17    19    1
