@<TRIPOS>MOLECULE
*****
 30 34 0 0 0
SMALL
GASTEIGER

@<TRIPOS>ATOM
      1 N         141.0960  144.7750  157.9625 N.ar    1  UNL1       -0.2499
      2 C         141.3831  143.4356  158.5738 C.ar    1  UNL1        0.1334
      3 C         141.1402  143.5382  160.0504 C.ar    1  UNL1        0.1789
      4 C         140.7030  144.9411  160.3518 C.ar    1  UNL1        0.1708
      5 N         140.6757  145.7054  159.0615 N.ar    1  UNL1       -0.1632
      6 C         140.3863  145.3413  161.7623 C.2     1  UNL1        0.1988
      7 O         139.9491  146.7441  162.0637 O.2     1  UNL1       -0.2894
      8 C         140.5067  144.3386  162.8715 C.3     1  UNL1        0.1109
      9 C         140.9439  142.9357  162.5700 C.3     1  UNL1        0.1438
     10 C         140.6271  143.3359  163.9805 C.3     1  UNL1        0.0620
     11 C         140.7476  142.3332  165.0896 C.3     1  UNL1        0.0973
     12 N         141.1847  140.9303  164.7881 N.am    1  UNL1       -0.2761
     13 C         141.3052  139.9276  165.8973 C.2     1  UNL1        0.2453
     14 O         141.7424  138.5247  165.5959 O.2     1  UNL1       -0.2702
     15 C         141.5015  140.5301  163.3777 C.3     1  UNL1        0.0973
     16 C         141.3811  141.5328  162.2686 C.3     1  UNL1        0.0620
     17 O         141.2606  142.5356  161.1595 O.3     1  UNL1       -0.4788
     18 C         140.9884  140.3278  167.3078 C.2     1  UNL1        0.0359
     19 C         139.6506  139.9955  167.8992 C.2     1  UNL1        0.0021
     20 C         139.3339  140.3957  169.3098 C.2     1  UNL1        0.0205
     21 C         140.3550  141.1281  170.1288 C.2     1  UNL1        0.1007
     22 N         140.3283  141.6474  171.5358 N.2     1  UNL1       -0.1482
     23 N         141.6497  142.3006  171.8140 N.2     1  UNL1       -0.1467
     24 C         142.4929  142.1850  170.5788 C.2     1  UNL1        0.1197
     25 C         141.6928  141.4604  169.5374 C.2     1  UNL1        0.0227
     26 C         142.0095  141.0603  168.1269 C.3     1  UNL1        0.0605
     27 C         142.2755  144.0808  156.3417 C.3     1  UNL1        0.0244
     28 C         141.2094  145.1229  156.5078 C.3     1  UNL1        0.0868
     29 C         140.1433  146.1650  156.6740 C.3     1  UNL1        0.0244
     30 C         141.3227  145.4708  155.0531 C.3     1  UNL1        0.0244
@<TRIPOS>BOND
     1    27    28    1
     2    28    29    1
     3    28    30    1
     4    28     1    1
     5     1     2   ar
     6     2     3   ar
     7     3     4   ar
     8     4     5   ar
     9     4     6    1
    10     6     7    2
    11     6     8    1
    12     8     9    1
    13     9    10    1
    14    10    11    1
    15    11    12    1
    16    12    13   am
    17    13    14    2
    18    13    18    1
    19    18    19    2
    20    19    20    1
    21    20    21    2
    22    21    22    1
    23    22    23    2
    24    23    24    1
    25    24    25    2
    26    25    26    1
    27    12    15    1
    28    15    16    1
    29     9    17    1
    30     5     1   ar
    31    16     9    1
    32    17     3    1
    33    26    18    1
    34    25    21    1
@<TRIPOS>MOLECULE
*****
 30 34 0 0 0
SMALL
GASTEIGER

@<TRIPOS>ATOM
      1 N         140.7390  145.4654  157.2468 N.ar    1  UNL1       -0.2499
      2 C         141.7956  145.6065  158.3021 C.ar    1  UNL1        0.1334
      3 C         141.3786  144.7882  159.4880 C.ar    1  UNL1        0.1789
      4 C         140.0641  144.1414  159.1658 C.ar    1  UNL1        0.1708
      5 N         139.6688  144.5600  157.7806 N.ar    1  UNL1       -0.1632
      6 C         139.3969  143.2550  160.1752 C.2     1  UNL1        0.1988
      7 O         138.0825  142.6082  159.8529 O.2     1  UNL1       -0.2894
      8 C         140.0443  143.0152  161.5070 C.3     1  UNL1        0.1109
      9 C         141.3587  143.6620  161.8293 C.3     1  UNL1        0.1438
     10 C         140.6916  142.7755  162.8387 C.3     1  UNL1        0.0620
     11 C         141.3389  142.5358  164.1704 C.3     1  UNL1        0.0973
     12 N         142.6533  143.1826  164.4927 N.am    1  UNL1       -0.2761
     13 C         143.3007  142.9428  165.8244 C.2     1  UNL1        0.2453
     14 O         144.6151  143.5896  166.1467 O.2     1  UNL1       -0.2702
     15 C         143.3205  144.0691  163.4832 C.3     1  UNL1        0.0973
     16 C         142.6732  144.3088  162.1515 C.3     1  UNL1        0.0620
     17 O         142.0259  144.5485  160.8197 O.3     1  UNL1       -0.4788
     18 C         142.6335  142.0564  166.8339 C.2     1  UNL1        0.0359
     19 C         142.9493  140.5904  166.8697 C.2     1  UNL1        0.0021
     20 C         142.2821  139.7039  167.8792 C.2     1  UNL1        0.0205
     21 C         141.2991  140.2834  168.8528 C.2     1  UNL1        0.1007
     22 N         140.4906  139.6618  169.9528 N.2     1  UNL1       -0.1482
     23 N         139.6752  140.7436  170.5969 N.2     1  UNL1       -0.1467
     24 C         139.9797  142.0337  169.8949 C.2     1  UNL1        0.1197
     25 C         140.9834  141.7493  168.8170 C.2     1  UNL1        0.0227
     26 C         141.6505  142.6358  167.8076 C.3     1  UNL1        0.0605
     27 C         139.5411  146.9193  156.2715 C.3     1  UNL1        0.0244
     28 C         140.7504  146.1157  155.8951 C.3     1  UNL1        0.0868
     29 C         141.9597  145.3120  155.5188 C.3     1  UNL1        0.0244
     30 C         140.7619  146.7659  154.5434 C.3     1  UNL1        0.0244
@<TRIPOS>BOND
     1    27    28    1
     2    28    29    1
     3    28    30    1
     4    28     1    1
     5     1     2   ar
     6     2     3   ar
     7     3     4   ar
     8     4     5   ar
     9     4     6    1
    10     6     7    2
    11     6     8    1
    12     8     9    1
    13     9    10    1
    14    10    11    1
    15    11    12    1
    16    12    13   am
    17    13    14    2
    18    13    18    1
    19    18    19    2
    20    19    20    1
    21    20    21    2
    22    21    22    1
    23    22    23    2
    24    23    24    1
    25    24    25    2
    26    25    26    1
    27    12    15    1
    28    15    16    1
    29     9    17    1
    30     5     1   ar
    31    16     9    1
    32    17     3    1
    33    26    18    1
    34    25    21    1
@<TRIPOS>MOLECULE
*****
 30 34 0 0 0
SMALL
GASTEIGER

@<TRIPOS>ATOM
      1 N         144.4303  142.4255  157.5955 N.ar    1  UNL1       -0.2499
      2 C         144.6880  141.3157  158.5712 C.ar    1  UNL1        0.1334
      3 C         143.9568  141.6358  159.8412 C.ar    1  UNL1        0.1789
      4 C         143.2471  142.9434  159.6504 C.ar    1  UNL1        0.1708
      5 N         143.5397  143.4315  158.2626 N.ar    1  UNL1       -0.1632
      6 C         142.4261  143.5207  160.7651 C.2     1  UNL1        0.1988
      7 O         141.7164  144.8284  160.5744 O.2     1  UNL1       -0.2894
      8 C         142.3148  142.7904  162.0707 C.3     1  UNL1        0.1109
      9 C         143.0245  141.4828  162.2614 C.3     1  UNL1        0.1438
     10 C         142.2035  142.0601  163.3761 C.3     1  UNL1        0.0620
     11 C         142.0922  141.3297  164.6815 C.3     1  UNL1        0.0973
     12 N         142.8019  140.0221  164.8722 N.am    1  UNL1       -0.2761
     13 C         142.6906  139.2918  166.1778 C.2     1  UNL1        0.2453
     14 O         143.4003  137.9841  166.3685 O.2     1  UNL1       -0.2702
     15 C         143.6229  139.4448  163.7575 C.3     1  UNL1        0.0973
     16 C         143.7342  140.1751  162.4521 C.3     1  UNL1        0.0620
     17 O         143.8455  140.9054  161.1466 O.3     1  UNL1       -0.4788
     18 C         141.8696  139.8691  167.2925 C.2     1  UNL1        0.0359
     19 C         140.3722  139.8073  167.2308 C.2     1  UNL1        0.0021
     20 C         139.5512  140.3847  168.3456 C.2     1  UNL1        0.0205
     21 C         140.2276  141.0238  169.5220 C.2     1  UNL1        0.1007
     22 N         139.6856  141.6726  170.7610 N.2     1  UNL1       -0.1482
     23 N         140.8480  142.1355  171.5884 N.2     1  UNL1       -0.1467
     24 C         142.1084  141.7727  170.8607 C.2     1  UNL1        0.1197
     25 C         141.7251  141.0856  169.5836 C.2     1  UNL1        0.0227
     26 C         142.5461  140.5083  168.4689 C.3     1  UNL1        0.0605
     27 C         143.6062  142.8921  155.6973 C.3     1  UNL1        0.0244
     28 C         144.9685  142.5139  156.1982 C.3     1  UNL1        0.0868
     29 C         146.3309  142.1356  156.6991 C.3     1  UNL1        0.0244
     30 C         145.5068  142.6022  154.8009 C.3     1  UNL1        0.0244
@<TRIPOS>BOND
     1    27    28    1
     2    28    29    1
     3    28    30    1
     4    28     1    1
     5     1     2   ar
     6     2     3   ar
     7     3     4   ar
     8     4     5   ar
     9     4     6    1
    10     6     7    2
    11     6     8    1
    12     8     9    1
    13     9    10    1
    14    10    11    1
    15    11    12    1
    16    12    13   am
    17    13    14    2
    18    13    18    1
    19    18    19    2
    20    19    20    1
    21    20    21    2
    22    21    22    1
    23    22    23    2
    24    23    24    1
    25    24    25    2
    26    25    26    1
    27    12    15    1
    28    15    16    1
    29     9    17    1
    30     5     1   ar
    31    16     9    1
    32    17     3    1
    33    26    18    1
    34    25    21    1
@<TRIPOS>MOLECULE
*****
 30 34 0 0 0
SMALL
GASTEIGER

@<TRIPOS>ATOM
      1 N         138.8892  140.3377  157.8732 N.ar    1  UNL1       -0.2499
      2 C         139.8810  139.5783  158.7036 C.ar    1  UNL1        0.1334
      3 C         139.8658  140.1563  160.0878 C.ar    1  UNL1        0.1789
      4 C         138.8646  141.2729  160.1128 C.ar    1  UNL1        0.1708
      5 N         138.2611  141.3850  158.7441 N.ar    1  UNL1       -0.1632
      6 C         138.6319  142.0433  161.3786 C.2     1  UNL1        0.1988
      7 O         137.6306  143.1600  161.4036 O.2     1  UNL1       -0.2894
      8 C         139.4003  141.6971  162.6194 C.3     1  UNL1        0.1109
      9 C         140.4016  140.5804  162.5944 C.3     1  UNL1        0.1438
     10 C         140.1688  141.3508  163.8602 C.3     1  UNL1        0.0620
     11 C         140.9373  141.0046  165.1009 C.3     1  UNL1        0.0973
     12 N         141.9385  139.8879  165.0759 N.am    1  UNL1       -0.2761
     13 C         142.7070  139.5417  166.3167 C.2     1  UNL1        0.2453
     14 O         143.7082  138.4250  166.2917 O.2     1  UNL1       -0.2702
     15 C         142.1713  139.1175  163.8101 C.3     1  UNL1        0.0973
     16 C         141.4028  139.4638  162.5694 C.3     1  UNL1        0.0620
     17 O         140.6343  139.8100  161.3285 O.3     1  UNL1       -0.4788
     18 C         142.4742  140.3121  167.5825 C.2     1  UNL1        0.0359
     19 C         143.2040  141.6007  167.8212 C.2     1  UNL1        0.0021
     20 C         142.9712  142.3711  169.0870 C.2     1  UNL1        0.0205
     21 C         142.0087  141.8529  170.1142 C.2     1  UNL1        0.1007
     22 N         141.5779  142.3896  171.4470 N.2     1  UNL1       -0.1482
     23 N         140.5819  141.4327  172.0321 N.2     1  UNL1       -0.1467
     24 C         140.3972  140.3046  171.0608 C.2     1  UNL1        0.1197
     25 C         141.2790  140.5643  169.8755 C.2     1  UNL1        0.0227
     26 C         141.5117  139.7939  168.6097 C.3     1  UNL1        0.0605
     27 C         139.7914  139.2153  156.3156 C.3     1  UNL1        0.0244
     28 C         138.5799  140.0928  156.4260 C.3     1  UNL1        0.0868
     29 C         137.3685  140.9704  156.5365 C.3     1  UNL1        0.0244
     30 C         138.2706  139.8479  154.9789 C.3     1  UNL1        0.0244
@<TRIPOS>BOND
     1    27    28    1
     2    28    29    1
     3    28    30    1
     4    28     1    1
     5     1     2   ar
     6     2     3   ar
     7     3     4   ar
     8     4     5   ar
     9     4     6    1
    10     6     7    2
    11     6     8    1
    12     8     9    1
    13     9    10    1
    14    10    11    1
    15    11    12    1
    16    12    13   am
    17    13    14    2
    18    13    18    1
    19    18    19    2
    20    19    20    1
    21    20    21    2
    22    21    22    1
    23    22    23    2
    24    23    24    1
    25    24    25    2
    26    25    26    1
    27    12    15    1
    28    15    16    1
    29     9    17    1
    30     5     1   ar
    31    16     9    1
    32    17     3    1
    33    26    18    1
    34    25    21    1
@<TRIPOS>MOLECULE
*****
 30 34 0 0 0
SMALL
GASTEIGER

@<TRIPOS>ATOM
      1 N         143.9640  140.7143  157.4772 N.ar    1  UNL1       -0.2499
      2 C         143.2242  141.7621  158.2548 C.ar    1  UNL1        0.1334
      3 C         142.9827  141.2301  159.6363 C.ar    1  UNL1        0.1789
      4 C         143.5732  139.8533  159.7125 C.ar    1  UNL1        0.1708
      5 N         144.1797  139.5346  158.3781 N.ar    1  UNL1       -0.1632
      6 C         143.4824  139.0678  160.9871 C.2     1  UNL1        0.1988
      7 O         144.0730  137.6911  161.0634 O.2     1  UNL1       -0.2894
      8 C         142.8011  139.6590  162.1856 C.3     1  UNL1        0.1109
      9 C         142.2105  141.0358  162.1094 C.3     1  UNL1        0.1438
     10 C         142.1197  140.2503  163.3840 C.3     1  UNL1        0.0620
     11 C         141.4383  140.8415  164.5823 C.3     1  UNL1        0.0973
     12 N         140.8478  142.2182  164.5061 N.am    1  UNL1       -0.2761
     13 C         140.1664  142.8095  165.7046 C.2     1  UNL1        0.2453
     14 O         139.5759  144.1862  165.6283 O.2     1  UNL1       -0.2702
     15 C         140.9386  143.0038  163.2315 C.3     1  UNL1        0.0973
     16 C         141.6199  142.4125  162.0331 C.3     1  UNL1        0.0620
     17 O         142.3013  141.8213  160.8347 O.3     1  UNL1       -0.4788
     18 C         140.0756  142.0240  166.9792 C.2     1  UNL1        0.0359
     19 C         139.4648  140.6540  166.9740 C.2     1  UNL1        0.0021
     20 C         139.3740  139.8685  168.2487 C.2     1  UNL1        0.0205
     21 C         139.8940  140.4529  169.5285 C.2     1  UNL1        0.1007
     22 N         139.9410  139.9192  170.9296 N.2     1  UNL1       -0.1482
     23 N         140.5808  140.9593  171.8007 N.2     1  UNL1       -0.1467
     24 C         140.9293  142.1358  170.9379 C.2     1  UNL1        0.1197
     25 C         140.5049  141.8229  169.5337 C.2     1  UNL1        0.0227
     26 C         140.5957  142.6084  168.2591 C.3     1  UNL1        0.0605
     27 C         145.6440  141.5551  156.4920 C.3     1  UNL1        0.0244
     28 C         144.4098  140.8265  156.0494 C.3     1  UNL1        0.0868
     29 C         143.1756  140.0978  155.6068 C.3     1  UNL1        0.0244
     30 C         144.8556  140.9386  154.6215 C.3     1  UNL1        0.0244
@<TRIPOS>BOND
     1    27    28    1
     2    28    29    1
     3    28    30    1
     4    28     1    1
     5     1     2   ar
     6     2     3   ar
     7     3     4   ar
     8     4     5   ar
     9     4     6    1
    10     6     7    2
    11     6     8    1
    12     8     9    1
    13     9    10    1
    14    10    11    1
    15    11    12    1
    16    12    13   am
    17    13    14    2
    18    13    18    1
    19    18    19    2
    20    19    20    1
    21    20    21    2
    22    21    22    1
    23    22    23    2
    24    23    24    1
    25    24    25    2
    26    25    26    1
    27    12    15    1
    28    15    16    1
    29     9    17    1
    30     5     1   ar
    31    16     9    1
    32    17     3    1
    33    26    18    1
    34    25    21    1
@<TRIPOS>MOLECULE
*****
 30 34 0 0 0
SMALL
GASTEIGER

@<TRIPOS>ATOM
      1 N         139.9953  141.0538  167.7802 N.ar    1  UNL1       -0.2499
      2 C         140.6964  141.6225  166.5823 C.ar    1  UNL1        0.1334
      3 C         140.5302  140.6573  165.4462 C.ar    1  UNL1        0.1789
      4 C         139.7263  139.4920  165.9419 C.ar    1  UNL1        0.1708
      5 N         139.3957  139.7370  167.3844 N.ar    1  UNL1       -0.1632
      6 C         139.3992  138.3583  165.0158 C.2     1  UNL1        0.1988
      7 O         138.5953  137.1929  165.5115 O.2     1  UNL1       -0.2894
      8 C         139.8760  138.3899  163.5939 C.3     1  UNL1        0.1109
      9 C         140.6799  139.5552  163.0982 C.3     1  UNL1        0.1438
     10 C         140.3528  138.4215  162.1721 C.3     1  UNL1        0.0620
     11 C         140.8296  138.4532  160.7503 C.3     1  UNL1        0.0973
     12 N         141.6335  139.6185  160.2546 N.am    1  UNL1       -0.2761
     13 C         142.1103  139.6501  158.8327 C.2     1  UNL1        0.2453
     14 O         142.9142  140.8155  158.3369 O.2     1  UNL1       -0.2702
     15 C         141.9606  140.7522  161.1807 C.3     1  UNL1        0.0973
     16 C         141.4838  140.7206  162.6025 C.3     1  UNL1        0.0620
     17 O         141.0070  140.6889  164.0244 O.3     1  UNL1       -0.4788
     18 C         141.7832  138.5165  157.9066 C.2     1  UNL1        0.0359
     19 C         140.4941  138.5226  157.1395 C.2     1  UNL1        0.0021
     20 C         140.1671  137.3889  156.2134 C.2     1  UNL1        0.0205
     21 C         141.1290  136.2490  156.0543 C.2     1  UNL1        0.1007
     22 N         141.0793  135.0025  155.2214 N.2     1  UNL1       -0.1482
     23 N         142.3375  134.2259  155.4736 N.2     1  UNL1       -0.1467
     24 C         143.1649  134.9925  156.4625 C.2     1  UNL1        0.1197
     25 C         142.4180  136.2428  156.8213 C.2     1  UNL1        0.0227
     26 C         142.7451  137.3765  157.7474 C.3     1  UNL1        0.0605
     27 C         139.2336  140.4615  169.6694 C.3     1  UNL1        0.0244
     28 C         139.9089  141.6900  169.1358 C.3     1  UNL1        0.0868
     29 C         140.5842  142.9186  168.6022 C.3     1  UNL1        0.0244
     30 C         139.8224  142.3263  170.4914 C.3     1  UNL1        0.0244
@<TRIPOS>BOND
     1    27    28    1
     2    28    29    1
     3    28    30    1
     4    28     1    1
     5     1     2   ar
     6     2     3   ar
     7     3     4   ar
     8     4     5   ar
     9     4     6    1
    10     6     7    2
    11     6     8    1
    12     8     9    1
    13     9    10    1
    14    10    11    1
    15    11    12    1
    16    12    13   am
    17    13    14    2
    18    13    18    1
    19    18    19    2
    20    19    20    1
    21    20    21    2
    22    21    22    1
    23    22    23    2
    24    23    24    1
    25    24    25    2
    26    25    26    1
    27    12    15    1
    28    15    16    1
    29     9    17    1
    30     5     1   ar
    31    16     9    1
    32    17     3    1
    33    26    18    1
    34    25    21    1
@<TRIPOS>MOLECULE
*****
 30 34 0 0 0
SMALL
GASTEIGER

@<TRIPOS>ATOM
      1 N         142.5853  133.9263  155.2851 N.ar    1  UNL1       -0.2499
      2 C         143.3244  134.5765  156.4169 C.ar    1  UNL1        0.1334
      3 C         142.5719  135.8122  156.8129 C.ar    1  UNL1        0.1789
      4 C         141.3677  135.9258  155.9258 C.ar    1  UNL1        0.1708
      5 N         141.3760  134.7602  154.9816 N.ar    1  UNL1       -0.1632
      6 C         140.4192  137.0758  156.0924 C.2     1  UNL1        0.1988
      7 O         139.2150  137.1893  155.2053 O.2     1  UNL1       -0.2894
      8 C         140.6749  138.1123  157.1461 C.3     1  UNL1        0.1109
      9 C         141.8791  137.9988  158.0332 C.3     1  UNL1        0.1438
     10 C         140.9307  139.1488  158.1998 C.3     1  UNL1        0.0620
     11 C         141.1864  140.1853  159.2534 C.3     1  UNL1        0.0973
     12 N         142.3906  140.0717  160.1405 N.am    1  UNL1       -0.2761
     13 C         142.6464  141.1083  161.1942 C.2     1  UNL1        0.2453
     14 O         143.8506  140.9948  162.0813 O.2     1  UNL1       -0.2702
     15 C         143.3391  138.9217  159.9739 C.3     1  UNL1        0.0973
     16 C         143.0834  137.8853  158.9203 C.3     1  UNL1        0.0620
     17 O         142.8277  136.8487  157.8665 O.3     1  UNL1       -0.4788
     18 C         141.6979  142.2583  161.3608 C.2     1  UNL1        0.0359
     19 C         142.0602  143.6127  160.8276 C.2     1  UNL1        0.0021
     20 C         141.1116  144.7627  160.9942 C.2     1  UNL1        0.0205
     21 C         139.8008  144.5583  161.6940 C.2     1  UNL1        0.1007
     22 N         138.6721  145.4961  162.0050 N.2     1  UNL1       -0.1482
     23 N         137.6122  144.7213  162.7304 N.2     1  UNL1       -0.1467
     24 C         138.0858  143.3047  162.8678 C.2     1  UNL1        0.1197
     25 C         139.4384  143.2039  162.2273 C.2     1  UNL1        0.0227
     26 C         140.3869  142.0539  162.0607 C.3     1  UNL1        0.0605
     27 C         143.9989  132.3876  155.6512 C.3     1  UNL1        0.0244
     28 C         142.9853  132.6639  154.5806 C.3     1  UNL1        0.0868
     29 C         141.9717  132.9403  153.5100 C.3     1  UNL1        0.0244
     30 C         143.3853  131.4015  153.8761 C.3     1  UNL1        0.0244
@<TRIPOS>BOND
     1    27    28    1
     2    28    29    1
     3    28    30    1
     4    28     1    1
     5     1     2   ar
     6     2     3   ar
     7     3     4   ar
     8     4     5   ar
     9     4     6    1
    10     6     7    2
    11     6     8    1
    12     8     9    1
    13     9    10    1
    14    10    11    1
    15    11    12    1
    16    12    13   am
    17    13    14    2
    18    13    18    1
    19    18    19    2
    20    19    20    1
    21    20    21    2
    22    21    22    1
    23    22    23    2
    24    23    24    1
    25    24    25    2
    26    25    26    1
    27    12    15    1
    28    15    16    1
    29     9    17    1
    30     5     1   ar
    31    16     9    1
    32    17     3    1
    33    26    18    1
    34    25    21    1
@<TRIPOS>MOLECULE
*****
 30 34 0 0 0
SMALL
GASTEIGER

@<TRIPOS>ATOM
      1 N         142.2257  141.7040  167.6390 N.ar    1  UNL1       -0.2499
      2 C         142.9783  141.5005  166.3575 C.ar    1  UNL1        0.1334
      3 C         142.2264  142.1975  165.2626 C.ar    1  UNL1        0.1789
      4 C         141.0091  142.8318  165.8674 C.ar    1  UNL1        0.1708
      5 N         141.0087  142.5268  167.3361 N.ar    1  UNL1       -0.1632
      6 C         140.0582  143.6052  165.0027 C.2     1  UNL1        0.1988
      7 O         138.8409  144.2395  165.6075 O.2     1  UNL1       -0.2894
      8 C         140.3247  143.7443  163.5330 C.3     1  UNL1        0.1109
      9 C         141.5420  143.1099  162.9282 C.3     1  UNL1        0.1438
     10 C         140.5912  143.8833  162.0635 C.3     1  UNL1        0.0620
     11 C         140.8577  144.0223  160.5940 C.3     1  UNL1        0.0973
     12 N         142.0750  143.3880  159.9892 N.am    1  UNL1       -0.2761
     13 C         142.3415  143.5271  158.5195 C.2     1  UNL1        0.2453
     14 O         143.5588  142.8927  157.9147 O.2     1  UNL1       -0.2702
     15 C         143.0258  142.6146  160.8539 C.3     1  UNL1        0.0973
     16 C         142.7593  142.4756  162.3234 C.3     1  UNL1        0.0620
     17 O         142.4929  142.3365  163.7931 O.3     1  UNL1       -0.4788
     18 C         141.3907  144.3004  157.6548 C.2     1  UNL1        0.0359
     19 C         141.6856  145.7296  157.3077 C.2     1  UNL1        0.0021
     20 C         140.7347  146.5030  156.4429 C.2     1  UNL1        0.0205
     21 C         139.4890  145.8472  155.9253 C.2     1  UNL1        0.1007
     22 N         138.3740  146.3533  155.0589 N.2     1  UNL1       -0.1482
     23 N         137.3899  145.2370  154.8706 N.2     1  UNL1       -0.1467
     24 C         137.8968  144.0409  155.6205 C.2     1  UNL1        0.1197
     25 C         139.1941  144.4180  156.2723 C.2     1  UNL1        0.0227
     26 C         140.1449  143.6446  157.1371 C.3     1  UNL1        0.0605
     27 C         141.7613  139.9678  168.7660 C.3     1  UNL1        0.0244
     28 C         142.6208  141.1772  168.9867 C.3     1  UNL1        0.0868
     29 C         143.4803  142.3866  169.2075 C.3     1  UNL1        0.0244
     30 C         143.0159  140.6504  170.3345 C.3     1  UNL1        0.0244
@<TRIPOS>BOND
     1    27    28    1
     2    28    29    1
     3    28    30    1
     4    28     1    1
     5     1     2   ar
     6     2     3   ar
     7     3     4   ar
     8     4     5   ar
     9     4     6    1
    10     6     7    2
    11     6     8    1
    12     8     9    1
    13     9    10    1
    14    10    11    1
    15    11    12    1
    16    12    13   am
    17    13    14    2
    18    13    18    1
    19    18    19    2
    20    19    20    1
    21    20    21    2
    22    21    22    1
    23    22    23    2
    24    23    24    1
    25    24    25    2
    26    25    26    1
    27    12    15    1
    28    15    16    1
    29     9    17    1
    30     5     1   ar
    31    16     9    1
    32    17     3    1
    33    26    18    1
    34    25    21    1
@<TRIPOS>MOLECULE
*****
 30 34 0 0 0
SMALL
GASTEIGER

@<TRIPOS>ATOM
      1 N         140.7007  140.3940  167.4316 N.ar    1  UNL1       -0.2499
      2 C         140.7008  139.5570  166.1869 C.ar    1  UNL1        0.1334
      3 C         140.1887  140.4031  165.0591 C.ar    1  UNL1        0.1789
      4 C         139.8720  141.7631  165.6068 C.ar    1  UNL1        0.1708
      5 N         140.1884  141.7575  167.0731 N.ar    1  UNL1       -0.1632
      6 C         139.3365  142.8309  164.6997 C.2     1  UNL1        0.1988
      7 O         139.0198  144.1910  165.2474 O.2     1  UNL1       -0.2894
      8 C         139.1176  142.5387  163.2448 C.3     1  UNL1        0.1109
      9 C         139.4343  141.1787  162.6970 C.3     1  UNL1        0.1438
     10 C         138.8988  142.2465  161.7899 C.3     1  UNL1        0.0620
     11 C         138.6799  141.9543  160.3350 C.3     1  UNL1        0.0973
     12 N         138.9966  140.5942  159.7873 N.am    1  UNL1       -0.2761
     13 C         138.7777  140.3020  158.3324 C.2     1  UNL1        0.2453
     14 O         139.0944  138.9420  157.7847 O.2     1  UNL1       -0.2702
     15 C         139.5321  139.5264  160.6945 C.3     1  UNL1        0.0973
     16 C         139.7510  139.8187  162.1493 C.3     1  UNL1        0.0620
     17 O         139.9699  140.1109  163.6043 O.3     1  UNL1       -0.4788
     18 C         138.2422  141.3698  157.4252 C.2     1  UNL1        0.0359
     19 C         136.9028  141.1970  156.7724 C.2     1  UNL1        0.0021
     20 C         136.3672  142.2649  155.8653 C.2     1  UNL1        0.0205
     21 C         137.1711  143.5055  155.6109 C.2     1  UNL1        0.1007
     22 N         136.9045  144.7197  154.7714 N.2     1  UNL1       -0.1482
     23 N         138.0792  145.6429  154.9054 N.2     1  UNL1       -0.1467
     24 C         139.0717  144.9992  155.8277 C.2     1  UNL1        0.1197
     25 C         138.5105  143.6783  156.2637 C.2     1  UNL1        0.0227
     26 C         139.0460  142.6105  157.1709 C.3     1  UNL1        0.0605
     27 C         139.7669  140.2441  169.3304 C.3     1  UNL1        0.0244
     28 C         141.1362  139.9462  168.7953 C.3     1  UNL1        0.0868
     29 C         142.5055  139.6484  168.2602 C.3     1  UNL1        0.0244
     30 C         141.5718  139.4985  170.1590 C.3     1  UNL1        0.0244
@<TRIPOS>BOND
     1    27    28    1
     2    28    29    1
     3    28    30    1
     4    28     1    1
     5     1     2   ar
     6     2     3   ar
     7     3     4   ar
     8     4     5   ar
     9     4     6    1
    10     6     7    2
    11     6     8    1
    12     8     9    1
    13     9    10    1
    14    10    11    1
    15    11    12    1
    16    12    13   am
    17    13    14    2
    18    13    18    1
    19    18    19    2
    20    19    20    1
    21    20    21    2
    22    21    22    1
    23    22    23    2
    24    23    24    1
    25    24    25    2
    26    25    26    1
    27    12    15    1
    28    15    16    1
    29     9    17    1
    30     5     1   ar
    31    16     9    1
    32    17     3    1
    33    26    18    1
    34    25    21    1
