@<TRIPOS>MOLECULE
*****
 42 46 0 0 0
SMALL
GASTEIGER

@<TRIPOS>ATOM
      1 C         140.5664  138.0780  161.7643 C.3     1  UNL1        0.0118
      2 C         142.0271  137.9295  161.4573 C.3     1  UNL1        0.0179
      3 C         142.5128  138.0543  160.0436 C.3     1  UNL1        0.0724
      4 N         141.5378  138.3274  158.9369 N.3     1  UNL1       -0.2689
      5 C         140.0771  138.4759  159.2439 C.3     1  UNL1        0.0724
      6 C         139.5914  138.3512  160.6576 C.3     1  UNL1        0.0179
      7 C         140.0806  137.9533  163.1780 C.3     1  UNL1        0.0851
      8 O         139.0976  140.0160  164.4145 O.2     1  UNL1       -0.2751
      9 C         140.2497  139.0976  164.1328 C.2     1  UNL1        0.2229
     10 N         141.5710  139.3237  164.8061 N.am    1  UNL1       -0.2986
     11 H         142.3271  138.7209  164.6213 H       1  UNL1        0.1500
     12 C         141.7401  140.4680  165.7610 C.3     1  UNL1        0.1169
     13 C         141.3432  140.3100  167.1988 C.ar    1  UNL1       -0.0002
     14 C         142.2999  139.6969  168.1780 C.ar    1  UNL1       -0.0001
     15 C         141.9030  139.5388  169.6158 C.ar    1  UNL1        0.0294
     16 C         140.5493  139.9938  170.0745 C.ar    1  UNL1        0.1401
     17 F         140.1523  139.8357  171.5124 F       1  UNL1       -0.2042
     18 C         139.5925  140.6069  169.0954 C.ar    1  UNL1        0.0294
     19 C         139.9894  140.7650  167.6575 C.ar    1  UNL1       -0.0001
     20 C         142.3062  141.7704  165.2780 C.ar    1  UNL1       -0.0002
     21 C         143.6768  142.1991  165.7112 C.ar    1  UNL1       -0.0001
     22 C         144.2429  143.5015  165.2282 C.ar    1  UNL1        0.0294
     23 C         143.4384  144.3753  164.3121 C.ar    1  UNL1        0.1401
     24 F         144.0045  145.6777  163.8291 F       1  UNL1       -0.2042
     25 C         142.0679  143.9466  163.8789 C.ar    1  UNL1        0.0294
     26 C         141.5018  142.6442  164.3619 C.ar    1  UNL1       -0.0001
     27 C         142.0235  138.4521  157.5232 C.3     1  UNL1        0.1007
     28 C         142.7814  137.3241  156.8883 C.ar    1  UNL1        0.0129
     29 C         143.7009  137.4337  155.7083 C.ar    1  UNL1        0.0176
     30 C         144.2406  136.0657  155.4126 C.ar    1  UNL1        0.0812
     31 N         143.6545  135.1106  156.4099 N.ar    1  UNL1       -0.2892
     32 C         142.7527  135.8884  157.3219 C.ar    1  UNL1        0.0785
     33 C         143.9232  133.6367  156.4824 C.ar    1  UNL1        0.1477
     34 C         143.5518  132.7491  155.3317 C.ar    1  UNL1        0.0374
     35 C         143.8204  131.2752  155.4041 C.ar    1  UNL1        0.0085
     36 C         144.4604  130.6888  156.6274 C.ar    1  UNL1        0.0906
     37 C         144.8319  131.5763  157.7782 C.ar    1  UNL1        0.1044
     38 N         144.5632  133.0502  157.7057 N.ar    1  UNL1       -0.2265
     39 C         144.7291  129.2148  156.6998 C.3     1  UNL1        0.4200
     40 F         144.9977  127.7408  156.7723 F       1  UNL1       -0.1658
     41 F         144.0837  129.1638  158.0529 F       1  UNL1       -0.1658
     42 F         145.3745  129.2659  155.3467 F       1  UNL1       -0.1658
@<TRIPOS>BOND
     1     8     9    2
     2     9     7    1
     3     7     1    1
     4     1     2    1
     5     2     3    1
     6     3     4    1
     7     4    27    1
     8    27    28    1
     9    28    29   ar
    10    29    30   ar
    11    30    31   ar
    12    31    33    1
    13    33    34   ar
    14    34    35   ar
    15    35    36   ar
    16    36    39    1
    17    39    40    1
    18    39    41    1
    19    39    42    1
    20    36    37   ar
    21    37    38   ar
    22    31    32   ar
    23     4     5    1
    24     5     6    1
    25     9    10   am
    26    10    12    1
    27    12    13    1
    28    13    14   ar
    29    14    15   ar
    30    15    16   ar
    31    16    17    1
    32    16    18   ar
    33    18    19   ar
    34    12    20    1
    35    20    21   ar
    36    21    22   ar
    37    22    23   ar
    38    23    24    1
    39    23    25   ar
    40    25    26   ar
    41     6     1    1
    42    19    13   ar
    43    26    20   ar
    44    32    28   ar
    45    38    33   ar
    46    10    11    1
@<TRIPOS>MOLECULE
*****
 42 46 0 0 0
SMALL
GASTEIGER

@<TRIPOS>ATOM
      1 C         140.4972  138.1197  161.7153 C.3     1  UNL1        0.0118
      2 C         139.5342  138.3152  160.5820 C.3     1  UNL1        0.0179
      3 C         140.0448  138.4418  159.1773 C.3     1  UNL1        0.0724
      4 N         141.5184  138.3729  158.9059 N.3     1  UNL1       -0.2689
      5 C         142.4815  138.1774  160.0392 C.3     1  UNL1        0.0724
      6 C         141.9709  138.0508  161.4438 C.3     1  UNL1        0.0179
      7 C         139.9866  137.9930  163.1201 C.3     1  UNL1        0.0851
      8 O         139.0514  140.0668  164.3750 O.2     1  UNL1       -0.2751
      9 C         140.1791  139.1189  164.0924 C.2     1  UNL1        0.2229
     10 N         141.4992  139.2968  164.7820 N.am    1  UNL1       -0.2986
     11 H         142.2394  138.6747  164.5965 H       1  UNL1        0.1500
     12 C         141.6917  140.4227  165.7543 C.3     1  UNL1        0.1169
     13 C         142.2723  141.7249  165.2885 C.ar    1  UNL1       -0.0002
     14 C         141.5011  142.5930  164.3389 C.ar    1  UNL1       -0.0001
     15 C         142.0817  143.8952  163.8730 C.ar    1  UNL1        0.0294
     16 C         143.4336  144.3294  164.3568 C.ar    1  UNL1        0.1401
     17 F         144.0142  145.6316  163.8910 F       1  UNL1       -0.2042
     18 C         144.2048  143.4614  165.3064 C.ar    1  UNL1        0.0294
     19 C         143.6241  142.1591  165.7723 C.ar    1  UNL1       -0.0001
     20 C         141.3035  140.2463  167.1925 C.ar    1  UNL1       -0.0002
     21 C         142.2896  139.6817  168.1717 C.ar    1  UNL1       -0.0001
     22 C         141.9014  139.5054  169.6098 C.ar    1  UNL1        0.0294
     23 C         140.5272  139.8935  170.0687 C.ar    1  UNL1        0.1401
     24 F         140.1390  139.7171  171.5068 F       1  UNL1       -0.2042
     25 C         139.5411  140.4580  169.0895 C.ar    1  UNL1        0.0294
     26 C         139.9293  140.6344  167.6514 C.ar    1  UNL1       -0.0001
     27 C         142.0290  138.4995  157.5011 C.3     1  UNL1        0.1007
     28 C         142.7809  137.3647  156.8712 C.ar    1  UNL1        0.0129
     29 C         143.6867  137.4610  155.6795 C.ar    1  UNL1        0.0176
     30 C         144.2246  136.0901  155.3942 C.ar    1  UNL1        0.0812
     31 N         143.6511  135.1465  156.4096 N.ar    1  UNL1       -0.2892
     32 C         142.7589  135.9343  157.3224 C.ar    1  UNL1        0.0785
     33 C         143.9223  133.6738  156.4967 C.ar    1  UNL1        0.1477
     34 C         143.6029  132.7823  155.3336 C.ar    1  UNL1        0.0374
     35 C         143.8741  131.3096  155.4208 C.ar    1  UNL1        0.0085
     36 C         144.4647  130.7285  156.6711 C.ar    1  UNL1        0.0906
     37 C         144.7841  131.6200  157.8343 C.ar    1  UNL1        0.1044
     38 N         144.5129  133.0927  157.7472 N.ar    1  UNL1       -0.2265
     39 C         144.7359  129.2558  156.7583 C.3     1  UNL1        0.4200
     40 F         145.0071  127.7831  156.8454 F       1  UNL1       -0.1658
     41 F         144.2724  129.2549  158.1849 F       1  UNL1       -0.1658
     42 F         145.1994  129.2567  155.3316 F       1  UNL1       -0.1658
@<TRIPOS>BOND
     1     8     9    2
     2     9     7    1
     3     7     1    1
     4     1     2    1
     5     2     3    1
     6     3     4    1
     7     4    27    1
     8    27    28    1
     9    28    29   ar
    10    29    30   ar
    11    30    31   ar
    12    31    33    1
    13    33    34   ar
    14    34    35   ar
    15    35    36   ar
    16    36    39    1
    17    39    40    1
    18    39    41    1
    19    39    42    1
    20    36    37   ar
    21    37    38   ar
    22    31    32   ar
    23     4     5    1
    24     5     6    1
    25     9    10   am
    26    10    12    1
    27    12    13    1
    28    13    14   ar
    29    14    15   ar
    30    15    16   ar
    31    16    17    1
    32    16    18   ar
    33    18    19   ar
    34    12    20    1
    35    20    21   ar
    36    21    22   ar
    37    22    23   ar
    38    23    24    1
    39    23    25   ar
    40    25    26   ar
    41     6     1    1
    42    19    13   ar
    43    26    20   ar
    44    32    28   ar
    45    38    33   ar
    46    10    11    1
@<TRIPOS>MOLECULE
*****
 42 46 0 0 0
SMALL
GASTEIGER

@<TRIPOS>ATOM
      1 C         140.6307  138.0200  162.1973 C.3     1  UNL1        0.0118
      2 C         142.0824  137.6896  162.0145 C.3     1  UNL1        0.0179
      3 C         142.6908  137.7165  160.6437 C.3     1  UNL1        0.0724
      4 N         141.8475  138.0737  159.4558 N.3     1  UNL1       -0.2689
      5 C         140.3958  138.4041  159.6386 C.3     1  UNL1        0.0724
      6 C         139.7875  138.3772  161.0094 C.3     1  UNL1        0.0179
      7 C         140.0223  137.9932  163.5682 C.3     1  UNL1        0.0851
      8 O         138.1758  139.6067  164.4266 O.2     1  UNL1       -0.2751
      9 C         139.6266  139.2755  164.2383 C.2     1  UNL1        0.2229
     10 N         140.6817  140.2266  164.7202 N.am    1  UNL1       -0.2986
     11 H         141.6339  140.0093  164.5965 H       1  UNL1        0.1500
     12 C         140.2860  141.5089  165.3903 C.3     1  UNL1        0.1169
     13 C         140.2274  141.5858  166.8871 C.ar    1  UNL1       -0.0002
     14 C         140.5738  142.8669  167.5865 C.ar    1  UNL1       -0.0001
     15 C         140.5152  142.9438  169.0833 C.ar    1  UNL1        0.0294
     16 C         140.1102  141.7397  169.8809 C.ar    1  UNL1        0.1401
     17 F         140.0516  141.8166  171.3778 F       1  UNL1       -0.2042
     18 C         139.7637  140.4587  169.1817 C.ar    1  UNL1        0.0294
     19 C         139.8223  140.3817  167.6847 C.ar    1  UNL1       -0.0001
     20 C         139.9489  142.7143  164.5636 C.ar    1  UNL1       -0.0002
     21 C         141.0446  143.5214  163.9328 C.ar    1  UNL1       -0.0001
     22 C         140.7075  144.7268  163.1061 C.ar    1  UNL1        0.0294
     23 C         139.2747  145.1250  162.9102 C.ar    1  UNL1        0.1401
     24 F         138.9376  146.3304  162.0835 F       1  UNL1       -0.2042
     25 C         138.1790  144.3179  163.5409 C.ar    1  UNL1        0.0294
     26 C         138.5161  143.1125  164.3677 C.ar    1  UNL1       -0.0001
     27 C         142.4560  138.1005  158.0849 C.3     1  UNL1        0.1007
     28 C         142.3110  136.9156  157.1767 C.ar    1  UNL1        0.0129
     29 C         141.2696  136.7440  156.1108 C.ar    1  UNL1        0.0176
     30 C         141.4969  135.4166  155.4502 C.ar    1  UNL1        0.0812
     31 N         142.6787  134.7678  156.1078 N.ar    1  UNL1       -0.2892
     32 C         143.1818  135.6943  157.1748 C.ar    1  UNL1        0.0785
     33 C         143.2560  133.4279  155.7596 C.ar    1  UNL1        0.1477
     34 C         144.3243  132.8243  156.6223 C.ar    1  UNL1        0.0374
     35 C         144.9016  131.4844  156.2740 C.ar    1  UNL1        0.0085
     36 C         144.4106  130.7481  155.0630 C.ar    1  UNL1        0.0906
     37 C         143.3423  131.3516  154.2002 C.ar    1  UNL1        0.1044
     38 N         142.7650  132.6915  154.5485 N.ar    1  UNL1       -0.2265
     39 C         144.9879  129.4082  154.7148 C.3     1  UNL1        0.4200
     40 F         145.5652  128.0682  154.3664 F       1  UNL1       -0.1658
     41 F         145.0109  129.0402  156.1687 F       1  UNL1       -0.1658
     42 F         144.9649  129.7761  153.2607 F       1  UNL1       -0.1658
@<TRIPOS>BOND
     1     8     9    2
     2     9     7    1
     3     7     1    1
     4     1     2    1
     5     2     3    1
     6     3     4    1
     7     4    27    1
     8    27    28    1
     9    28    29   ar
    10    29    30   ar
    11    30    31   ar
    12    31    33    1
    13    33    34   ar
    14    34    35   ar
    15    35    36   ar
    16    36    39    1
    17    39    40    1
    18    39    41    1
    19    39    42    1
    20    36    37   ar
    21    37    38   ar
    22    31    32   ar
    23     4     5    1
    24     5     6    1
    25     9    10   am
    26    10    12    1
    27    12    13    1
    28    13    14   ar
    29    14    15   ar
    30    15    16   ar
    31    16    17    1
    32    16    18   ar
    33    18    19   ar
    34    12    20    1
    35    20    21   ar
    36    21    22   ar
    37    22    23   ar
    38    23    24    1
    39    23    25   ar
    40    25    26   ar
    41     6     1    1
    42    19    13   ar
    43    26    20   ar
    44    32    28   ar
    45    38    33   ar
    46    10    11    1
@<TRIPOS>MOLECULE
*****
 42 46 0 0 0
SMALL
GASTEIGER

@<TRIPOS>ATOM
      1 C         140.2816  138.3049  161.5371 C.3     1  UNL1        0.0118
      2 C         139.5329  138.4556  160.2462 C.3     1  UNL1        0.0179
      3 C         140.2788  138.4803  158.9451 C.3     1  UNL1        0.0724
      4 N         141.7735  138.3542  158.9349 N.3     1  UNL1       -0.2689
      5 C         142.5222  138.2035  160.2259 C.3     1  UNL1        0.0724
      6 C         141.7762  138.1788  161.5270 C.3     1  UNL1        0.0179
      7 C         139.5356  138.2801  162.8383 C.3     1  UNL1        0.0851
      8 O         137.9192  140.0743  163.7965 O.2     1  UNL1       -0.2751
      9 C         139.3119  139.5535  163.5989 C.2     1  UNL1        0.2229
     10 N         140.4810  140.3062  164.1618 N.am    1  UNL1       -0.2986
     11 H         141.3951  139.9644  164.0321 H       1  UNL1        0.1500
     12 C         140.2573  141.5795  164.9224 C.3     1  UNL1        0.1169
     13 C         140.0950  142.8752  164.1843 C.ar    1  UNL1       -0.0002
     14 C         138.7250  143.4414  163.9552 C.ar    1  UNL1       -0.0001
     15 C         138.5627  144.7371  163.2171 C.ar    1  UNL1        0.0294
     16 C         139.7704  145.4667  162.7082 C.ar    1  UNL1        0.1401
     17 F         139.6082  146.7625  161.9702 F       1  UNL1       -0.2042
     18 C         141.1404  144.9007  162.9373 C.ar    1  UNL1        0.0294
     19 C         141.3028  143.6049  163.6754 C.ar    1  UNL1       -0.0001
     20 C         140.1959  141.5572  166.4209 C.ar    1  UNL1       -0.0002
     21 C         139.7555  140.3138  167.1350 C.ar    1  UNL1       -0.0001
     22 C         139.6940  140.2914  168.6336 C.ar    1  UNL1        0.0294
     23 C         140.0730  141.5125  169.4181 C.ar    1  UNL1        0.1401
     24 F         140.0116  141.4901  170.9167 F       1  UNL1       -0.2042
     25 C         140.5135  142.7558  168.7040 C.ar    1  UNL1        0.0294
     26 C         140.5749  142.7782  167.2054 C.ar    1  UNL1       -0.0001
     27 C         142.5194  138.3790  157.6337 C.3     1  UNL1        0.1007
     28 C         142.9711  137.0948  157.0037 C.ar    1  UNL1        0.0129
     29 C         143.4877  136.9331  155.6048 C.ar    1  UNL1        0.0176
     30 C         143.8213  135.4853  155.3984 C.ar    1  UNL1        0.0812
     31 N         143.5109  134.7522  156.6698 N.ar    1  UNL1       -0.2892
     32 C         142.9854  135.7470  157.6619 C.ar    1  UNL1        0.0785
     33 C         143.6939  133.2825  156.9073 C.ar    1  UNL1        0.1477
     34 C         142.7483  132.2987  156.2845 C.ar    1  UNL1        0.0374
     35 C         142.9313  130.8290  156.5220 C.ar    1  UNL1        0.0085
     36 C         144.0598  130.3431  157.3823 C.ar    1  UNL1        0.0906
     37 C         145.0054  131.3269  158.0052 C.ar    1  UNL1        0.1044
     38 N         144.8225  132.7966  157.7677 N.ar    1  UNL1       -0.2265
     39 C         144.2428  128.8734  157.6198 C.3     1  UNL1        0.4200
     40 F         144.4257  127.4036  157.8574 F       1  UNL1       -0.1658
     41 F         145.0841  128.7780  156.3817 F       1  UNL1       -0.1658
     42 F         143.4014  128.9687  158.8581 F       1  UNL1       -0.1658
@<TRIPOS>BOND
     1     8     9    2
     2     9     7    1
     3     7     1    1
     4     1     2    1
     5     2     3    1
     6     3     4    1
     7     4    27    1
     8    27    28    1
     9    28    29   ar
    10    29    30   ar
    11    30    31   ar
    12    31    33    1
    13    33    34   ar
    14    34    35   ar
    15    35    36   ar
    16    36    39    1
    17    39    40    1
    18    39    41    1
    19    39    42    1
    20    36    37   ar
    21    37    38   ar
    22    31    32   ar
    23     4     5    1
    24     5     6    1
    25     9    10   am
    26    10    12    1
    27    12    13    1
    28    13    14   ar
    29    14    15   ar
    30    15    16   ar
    31    16    17    1
    32    16    18   ar
    33    18    19   ar
    34    12    20    1
    35    20    21   ar
    36    21    22   ar
    37    22    23   ar
    38    23    24    1
    39    23    25   ar
    40    25    26   ar
    41     6     1    1
    42    19    13   ar
    43    26    20   ar
    44    32    28   ar
    45    38    33   ar
    46    10    11    1
@<TRIPOS>MOLECULE
*****
 42 46 0 0 0
SMALL
GASTEIGER

@<TRIPOS>ATOM
      1 C         140.5930  138.1343  162.1607 C.3     1  UNL1        0.0118
      2 C         142.0492  137.8186  161.9882 C.3     1  UNL1        0.0179
      3 C         142.6602  137.8225  160.6183 C.3     1  UNL1        0.0724
      4 N         141.8150  138.1420  159.4210 N.3     1  UNL1       -0.2689
      5 C         140.3588  138.4576  159.5935 C.3     1  UNL1        0.0724
      6 C         139.7478  138.4538  160.9634 C.3     1  UNL1        0.0179
      7 C         139.9820  138.1304  163.5307 C.3     1  UNL1        0.0851
      8 O         138.2229  139.8226  164.4206 O.2     1  UNL1       -0.2751
      9 C         139.6544  139.4273  164.2094 C.2     1  UNL1        0.2229
     10 N         140.7582  140.3290  164.6769 N.am    1  UNL1       -0.2986
     11 H         141.6978  140.0695  164.5383 H       1  UNL1        0.1500
     12 C         140.4306  141.6259  165.3557 C.3     1  UNL1        0.1169
     13 C         140.1964  142.8617  164.5385 C.ar    1  UNL1       -0.0002
     14 C         141.3623  143.6369  164.0000 C.ar    1  UNL1       -0.0001
     15 C         141.1281  144.8728  163.1829 C.ar    1  UNL1        0.0294
     16 C         139.7280  145.3335  162.9042 C.ar    1  UNL1        0.1401
     17 F         139.4938  146.5694  162.0871 F       1  UNL1       -0.2042
     18 C         138.5622  144.5584  163.4427 C.ar    1  UNL1        0.0294
     19 C         138.7964  143.3225  164.2599 C.ar    1  UNL1       -0.0001
     20 C         140.3372  141.6869  166.8515 C.ar    1  UNL1       -0.0002
     21 C         140.5994  142.9787  167.5673 C.ar    1  UNL1       -0.0001
     22 C         140.5060  143.0397  169.0631 C.ar    1  UNL1        0.0294
     23 C         140.1504  141.8089  169.8432 C.ar    1  UNL1        0.1401
     24 F         140.0570  141.8699  171.3390 F       1  UNL1       -0.2042
     25 C         139.8882  140.5171  169.1274 C.ar    1  UNL1        0.0294
     26 C         139.9816  140.4561  167.6316 C.ar    1  UNL1       -0.0001
     27 C         142.4260  138.1458  158.0510 C.3     1  UNL1        0.1007
     28 C         142.2832  136.9456  157.1627 C.ar    1  UNL1        0.0129
     29 C         141.2378  136.7513  156.1047 C.ar    1  UNL1        0.0176
     30 C         141.4691  135.4146  155.4645 C.ar    1  UNL1        0.0812
     31 N         142.6575  134.7829  156.1269 N.ar    1  UNL1       -0.2892
     32 C         143.1606  135.7291  157.1764 C.ar    1  UNL1        0.0785
     33 C         143.2404  133.4406  155.7975 C.ar    1  UNL1        0.1477
     34 C         142.6879  132.6432  154.6536 C.ar    1  UNL1        0.0374
     35 C         143.2708  131.3009  154.3242 C.ar    1  UNL1        0.0085
     36 C         144.4063  130.7561  155.1388 C.ar    1  UNL1        0.0906
     37 C         144.9589  131.5534  156.2828 C.ar    1  UNL1        0.1044
     38 N         144.3760  132.8957  156.6121 N.ar    1  UNL1       -0.2265
     39 C         144.9892  129.4138  154.8094 C.3     1  UNL1        0.4200
     40 F         145.5721  128.0715  154.4799 F       1  UNL1       -0.1658
     41 F         144.9668  129.0472  156.2637 F       1  UNL1       -0.1658
     42 F         145.0115  129.7804  153.3550 F       1  UNL1       -0.1658
@<TRIPOS>BOND
     1     8     9    2
     2     9     7    1
     3     7     1    1
     4     1     2    1
     5     2     3    1
     6     3     4    1
     7     4    27    1
     8    27    28    1
     9    28    29   ar
    10    29    30   ar
    11    30    31   ar
    12    31    33    1
    13    33    34   ar
    14    34    35   ar
    15    35    36   ar
    16    36    39    1
    17    39    40    1
    18    39    41    1
    19    39    42    1
    20    36    37   ar
    21    37    38   ar
    22    31    32   ar
    23     4     5    1
    24     5     6    1
    25     9    10   am
    26    10    12    1
    27    12    13    1
    28    13    14   ar
    29    14    15   ar
    30    15    16   ar
    31    16    17    1
    32    16    18   ar
    33    18    19   ar
    34    12    20    1
    35    20    21   ar
    36    21    22   ar
    37    22    23   ar
    38    23    24    1
    39    23    25   ar
    40    25    26   ar
    41     6     1    1
    42    19    13   ar
    43    26    20   ar
    44    32    28   ar
    45    38    33   ar
    46    10    11    1
@<TRIPOS>MOLECULE
*****
 42 46 0 0 0
SMALL
GASTEIGER

@<TRIPOS>ATOM
      1 C         140.3477  138.2968  161.5238 C.3     1  UNL1        0.0118
      2 C         139.5270  138.5083  160.2863 C.3     1  UNL1        0.0179
      3 C         140.1935  138.5560  158.9434 C.3     1  UNL1        0.0724
      4 N         141.6808  138.3921  158.8381 N.3     1  UNL1       -0.2689
      5 C         142.5016  138.1806  160.0756 C.3     1  UNL1        0.0724
      6 C         141.8350  138.1330  161.4185 C.3     1  UNL1        0.0179
      7 C         139.6812  138.2492  162.8668 C.3     1  UNL1        0.0851
      8 O         138.0048  140.0017  163.7986 O.2     1  UNL1       -0.2751
      9 C         139.4137  139.5203  163.6169 C.2     1  UNL1        0.2229
     10 N         140.5553  140.3101  164.1853 N.am    1  UNL1       -0.2986
     11 H         141.4801  139.9941  164.0660 H       1  UNL1        0.1500
     12 C         140.2879  141.5812  164.9354 C.3     1  UNL1        0.1169
     13 C         140.2024  141.5645  166.4329 C.ar    1  UNL1       -0.0002
     14 C         139.7061  140.3395  167.1422 C.ar    1  UNL1       -0.0001
     15 C         139.6205  140.3228  168.6396 C.ar    1  UNL1        0.0294
     16 C         140.0312  141.5311  169.4278 C.ar    1  UNL1        0.1401
     17 F         139.9457  141.5144  170.9252 F       1  UNL1       -0.2042
     18 C         140.5275  142.7561  168.7186 C.ar    1  UNL1        0.0294
     19 C         140.6131  142.7728  167.2211 C.ar    1  UNL1       -0.0001
     20 C         140.1061  142.8690  164.1881 C.ar    1  UNL1       -0.0002
     21 C         138.7257  143.3813  163.9014 C.ar    1  UNL1       -0.0001
     22 C         138.5439  144.6691  163.1541 C.ar    1  UNL1        0.0294
     23 C         139.7423  145.4446  162.6934 C.ar    1  UNL1        0.1401
     24 F         139.5605  146.7324  161.9461 F       1  UNL1       -0.2042
     25 C         141.1227  144.9323  162.9801 C.ar    1  UNL1        0.0294
     26 C         141.3045  143.6445  163.7275 C.ar    1  UNL1       -0.0001
     27 C         142.3474  138.4398  157.4951 C.3     1  UNL1        0.1007
     28 C         142.9304  137.1913  156.9024 C.ar    1  UNL1        0.0129
     29 C         143.6319  137.0871  155.5807 C.ar    1  UNL1        0.0176
     30 C         144.0494  135.6592  155.3888 C.ar    1  UNL1        0.0812
     31 N         143.6059  134.8809  156.5920 N.ar    1  UNL1       -0.2892
     32 C         142.9143  135.8278  157.5274 C.ar    1  UNL1        0.0785
     33 C         143.8169  133.4134  156.8197 C.ar    1  UNL1        0.1477
     34 C         142.9961  132.4114  156.0632 C.ar    1  UNL1        0.0374
     35 C         143.2071  130.9439  156.2909 C.ar    1  UNL1        0.0085
     36 C         144.2389  130.4784  157.2751 C.ar    1  UNL1        0.0906
     37 C         145.0597  131.4803  158.0316 C.ar    1  UNL1        0.1044
     38 N         144.8487  132.9478  157.8039 N.ar    1  UNL1       -0.2265
     39 C         144.4499  129.0109  157.5028 C.3     1  UNL1        0.4200
     40 F         144.6609  127.5433  157.7306 F       1  UNL1       -0.1658
     41 F         145.0639  128.8877  156.1398 F       1  UNL1       -0.1658
     42 F         143.8359  129.1340  158.8659 F       1  UNL1       -0.1658
@<TRIPOS>BOND
     1     8     9    2
     2     9     7    1
     3     7     1    1
     4     1     2    1
     5     2     3    1
     6     3     4    1
     7     4    27    1
     8    27    28    1
     9    28    29   ar
    10    29    30   ar
    11    30    31   ar
    12    31    33    1
    13    33    34   ar
    14    34    35   ar
    15    35    36   ar
    16    36    39    1
    17    39    40    1
    18    39    41    1
    19    39    42    1
    20    36    37   ar
    21    37    38   ar
    22    31    32   ar
    23     4     5    1
    24     5     6    1
    25     9    10   am
    26    10    12    1
    27    12    13    1
    28    13    14   ar
    29    14    15   ar
    30    15    16   ar
    31    16    17    1
    32    16    18   ar
    33    18    19   ar
    34    12    20    1
    35    20    21   ar
    36    21    22   ar
    37    22    23   ar
    38    23    24    1
    39    23    25   ar
    40    25    26   ar
    41     6     1    1
    42    19    13   ar
    43    26    20   ar
    44    32    28   ar
    45    38    33   ar
    46    10    11    1
@<TRIPOS>MOLECULE
*****
 42 46 0 0 0
SMALL
GASTEIGER

@<TRIPOS>ATOM
      1 C         138.4643  139.8778  161.9068 C.3     1  UNL1        0.0118
      2 C         138.0190  140.9211  160.9254 C.3     1  UNL1        0.0179
      3 C         138.3020  140.7445  159.4630 C.3     1  UNL1        0.0724
      4 N         139.0303  139.5246  158.9820 N.3     1  UNL1       -0.2689
      5 C         139.4756  138.4813  159.9633 C.3     1  UNL1        0.0724
      6 C         139.1926  138.6578  161.4257 C.3     1  UNL1        0.0179
      7 C         138.1813  140.0543  163.3693 C.3     1  UNL1        0.0851
      8 O         139.4283  141.9696  164.6048 O.2     1  UNL1       -0.2751
      9 C         139.2704  140.5106  164.2942 C.2     1  UNL1        0.2229
     10 N         140.2017  139.5080  164.9085 N.am    1  UNL1       -0.2986
     11 H         140.0981  138.5504  164.7047 H       1  UNL1        0.1500
     12 C         141.2909  139.9643  165.8335 C.3     1  UNL1        0.1169
     13 C         142.6159  140.3941  165.2773 C.ar    1  UNL1       -0.0002
     14 C         142.9777  141.8494  165.2411 C.ar    1  UNL1       -0.0001
     15 C         144.3028  142.2793  164.6850 C.ar    1  UNL1        0.0294
     16 C         145.2661  141.2538  164.1649 C.ar    1  UNL1        0.1401
     17 F         146.5912  141.6837  163.6087 F       1  UNL1       -0.2042
     18 C         144.9044  139.7986  164.2010 C.ar    1  UNL1        0.0294
     19 C         143.5793  139.3687  164.7572 C.ar    1  UNL1       -0.0001
     20 C         141.0549  139.9907  167.3145 C.ar    1  UNL1       -0.0002
     21 C         142.1769  139.6746  168.2585 C.ar    1  UNL1       -0.0001
     22 C         141.9410  139.7011  169.7396 C.ar    1  UNL1        0.0294
     23 C         140.5830  140.0437  170.2767 C.ar    1  UNL1        0.1401
     24 F         140.3471  140.0702  171.7578 F       1  UNL1       -0.2042
     25 C         139.4610  140.3599  169.3328 C.ar    1  UNL1        0.0294
     26 C         139.6970  140.3334  167.8517 C.ar    1  UNL1       -0.0001
     27 C         139.3133  139.3480  157.5195 C.3     1  UNL1        0.1007
     28 C         140.5423  138.6106  157.0770 C.ar    1  UNL1        0.0129
     29 C         141.8679  139.2274  156.7423 C.ar    1  UNL1        0.0176
     30 C         142.8063  138.1249  156.3501 C.ar    1  UNL1        0.0812
     31 N         142.0606  136.8266  156.4424 N.ar    1  UNL1       -0.2892
     32 C         140.6614  137.1268  156.8917 C.ar    1  UNL1        0.0785
     33 C         142.6166  135.4670  156.1388 C.ar    1  UNL1        0.1477
     34 C         142.2655  134.7837  154.8505 C.ar    1  UNL1        0.0374
     35 C         142.8214  133.4240  154.5468 C.ar    1  UNL1        0.0085
     36 C         143.7285  132.7476  155.5315 C.ar    1  UNL1        0.0906
     37 C         144.0797  133.4309  156.8198 C.ar    1  UNL1        0.1044
     38 N         143.5237  134.7905  157.1235 N.ar    1  UNL1       -0.2265
     39 C         144.2844  131.3880  155.2278 C.3     1  UNL1        0.4200
     40 F         144.8405  130.0283  154.9243 F       1  UNL1       -0.1658
     41 F         143.2087  131.1768  154.2041 F       1  UNL1       -0.1658
     42 F         145.3603  131.5992  156.2517 F       1  UNL1       -0.1658
@<TRIPOS>BOND
     1     8     9    2
     2     9     7    1
     3     7     1    1
     4     1     2    1
     5     2     3    1
     6     3     4    1
     7     4    27    1
     8    27    28    1
     9    28    29   ar
    10    29    30   ar
    11    30    31   ar
    12    31    33    1
    13    33    34   ar
    14    34    35   ar
    15    35    36   ar
    16    36    39    1
    17    39    40    1
    18    39    41    1
    19    39    42    1
    20    36    37   ar
    21    37    38   ar
    22    31    32   ar
    23     4     5    1
    24     5     6    1
    25     9    10   am
    26    10    12    1
    27    12    13    1
    28    13    14   ar
    29    14    15   ar
    30    15    16   ar
    31    16    17    1
    32    16    18   ar
    33    18    19   ar
    34    12    20    1
    35    20    21   ar
    36    21    22   ar
    37    22    23   ar
    38    23    24    1
    39    23    25   ar
    40    25    26   ar
    41     6     1    1
    42    19    13   ar
    43    26    20   ar
    44    32    28   ar
    45    38    33   ar
    46    10    11    1
@<TRIPOS>MOLECULE
*****
 42 46 0 0 0
SMALL
GASTEIGER

@<TRIPOS>ATOM
      1 C         141.6944  138.3980  162.3727 C.3     1  UNL1        0.0118
      2 C         143.0817  138.0546  161.9173 C.3     1  UNL1        0.0179
      3 C         143.4040  138.0235  160.4527 C.3     1  UNL1        0.0724
      4 N         142.3391  138.3358  159.4435 N.3     1  UNL1       -0.2689
      5 C         140.9518  138.6793  159.8990 C.3     1  UNL1        0.0724
      6 C         140.6295  138.7104  161.3636 C.3     1  UNL1        0.0179
      7 C         141.3720  138.4291  163.8374 C.3     1  UNL1        0.0851
      8 O         139.6319  139.9141  165.0689 O.2     1  UNL1       -0.2751
      9 C         141.0058  139.7254  164.4973 C.2     1  UNL1        0.2229
     10 N         142.0136  140.8329  164.5858 N.am    1  UNL1       -0.2986
     11 H         142.9153  140.7091  164.2107 H       1  UNL1        0.1500
     12 C         141.6474  142.1292  165.2458 C.3     1  UNL1        0.1169
     13 C         141.1408  143.2743  164.4200 C.ar    1  UNL1       -0.0002
     14 C         139.6807  143.3731  164.0903 C.ar    1  UNL1       -0.0001
     15 C         139.1741  144.5182  163.2646 C.ar    1  UNL1        0.0294
     16 C         140.1274  145.5646  162.7684 C.ar    1  UNL1        0.1401
     17 F         139.6208  146.7098  161.9426 F       1  UNL1       -0.2042
     18 C         141.5874  145.4659  163.0980 C.ar    1  UNL1        0.0294
     19 C         142.0941  144.3207  163.9238 C.ar    1  UNL1       -0.0001
     20 C         141.7878  142.2803  166.7315 C.ar    1  UNL1       -0.0002
     21 C         140.5763  142.5403  167.5768 C.ar    1  UNL1       -0.0001
     22 C         140.7167  142.6914  169.0625 C.ar    1  UNL1        0.0294
     23 C         142.0687  142.5825  169.7030 C.ar    1  UNL1        0.1401
     24 F         142.2092  142.7336  171.1888 F       1  UNL1       -0.2042
     25 C         143.2803  142.3226  168.8577 C.ar    1  UNL1        0.0294
     26 C         143.1398  142.1715  167.3720 C.ar    1  UNL1       -0.0001
     27 C         142.6615  138.3047  157.9789 C.3     1  UNL1        0.1007
     28 C         142.2939  137.1062  157.1553 C.ar    1  UNL1        0.0129
     29 C         141.1792  137.0325  156.1543 C.ar    1  UNL1        0.0176
     30 C         141.1729  135.6517  155.5685 C.ar    1  UNL1        0.0812
     31 N         142.2837  134.8719  156.2074 N.ar    1  UNL1       -0.2892
     32 C         142.9765  135.7709  157.1881 C.ar    1  UNL1        0.0785
     33 C         142.6392  133.4439  155.9166 C.ar    1  UNL1        0.1477
     34 C         142.9453  133.0185  154.5112 C.ar    1  UNL1        0.0374
     35 C         143.3008  131.5905  154.2205 C.ar    1  UNL1        0.0085
     36 C         143.3501  130.5881  155.3351 C.ar    1  UNL1        0.0906
     37 C         143.0440  131.0135  156.7405 C.ar    1  UNL1        0.1044
     38 N         142.6885  132.4414  157.0313 N.ar    1  UNL1       -0.2265
     39 C         143.7056  129.1601  155.0443 C.3     1  UNL1        0.4200
     40 F         144.0611  127.7321  154.7536 F       1  UNL1       -0.1658
     41 F         144.8037  129.6194  154.1314 F       1  UNL1       -0.1658
     42 F         142.6076  128.7008  155.9572 F       1  UNL1       -0.1658
@<TRIPOS>BOND
     1     8     9    2
     2     9     7    1
     3     7     1    1
     4     1     2    1
     5     2     3    1
     6     3     4    1
     7     4    27    1
     8    27    28    1
     9    28    29   ar
    10    29    30   ar
    11    30    31   ar
    12    31    33    1
    13    33    34   ar
    14    34    35   ar
    15    35    36   ar
    16    36    39    1
    17    39    40    1
    18    39    41    1
    19    39    42    1
    20    36    37   ar
    21    37    38   ar
    22    31    32   ar
    23     4     5    1
    24     5     6    1
    25     9    10   am
    26    10    12    1
    27    12    13    1
    28    13    14   ar
    29    14    15   ar
    30    15    16   ar
    31    16    17    1
    32    16    18   ar
    33    18    19   ar
    34    12    20    1
    35    20    21   ar
    36    21    22   ar
    37    22    23   ar
    38    23    24    1
    39    23    25   ar
    40    25    26   ar
    41     6     1    1
    42    19    13   ar
    43    26    20   ar
    44    32    28   ar
    45    38    33   ar
    46    10    11    1
@<TRIPOS>MOLECULE
*****
 42 46 0 0 0
SMALL
GASTEIGER

@<TRIPOS>ATOM
      1 C         143.7560  139.3093  162.1259 C.3     1  UNL1        0.0118
      2 C         143.9901  140.3083  161.0318 C.3     1  UNL1        0.0179
      3 C         143.5149  140.0198  159.6387 C.3     1  UNL1        0.0724
      4 N         142.8058  138.7323  159.3396 N.3     1  UNL1       -0.2689
      5 C         142.5718  137.7333  160.4337 C.3     1  UNL1        0.0724
      6 C         143.0469  138.0218  161.8269 C.3     1  UNL1        0.0179
      7 C         144.2312  139.5977  163.5192 C.3     1  UNL1        0.0851
      8 O         143.8553  141.8951  164.6727 O.2     1  UNL1       -0.2751
      9 C         143.4208  140.4819  164.4200 C.2     1  UNL1        0.2229
     10 N         142.1757  139.9528  165.0681 N.am    1  UNL1       -0.2986
     11 H         141.8905  139.0252  164.9023 H       1  UNL1        0.1500
     12 C         141.3653  140.8369  165.9689 C.3     1  UNL1        0.1169
     13 C         140.3334  141.7567  165.3866 C.ar    1  UNL1       -0.0002
     14 C         139.2254  141.2017  164.5414 C.ar    1  UNL1       -0.0001
     15 C         138.1935  142.1214  163.9591 C.ar    1  UNL1        0.0294
     16 C         138.2696  143.5963  164.2219 C.ar    1  UNL1        0.1401
     17 F         137.2377  144.5161  163.6395 F       1  UNL1       -0.2042
     18 C         139.3776  144.1513  165.0670 C.ar    1  UNL1        0.0294
     19 C         140.4095  143.2315  165.6494 C.ar    1  UNL1       -0.0001
     20 C         141.5868  140.8012  167.4521 C.ar    1  UNL1       -0.0002
     21 C         140.5948  140.1131  168.3422 C.ar    1  UNL1       -0.0001
     22 C         140.8162  140.0774  169.8253 C.ar    1  UNL1        0.0294
     23 C         142.0297  140.7299  170.4183 C.ar    1  UNL1        0.1401
     24 F         142.2511  140.6943  171.9015 F       1  UNL1       -0.2042
     25 C         143.0217  141.4181  169.5282 C.ar    1  UNL1        0.0294
     26 C         142.8002  141.4537  168.0451 C.ar    1  UNL1       -0.0001
     27 C         142.3307  138.4438  157.9463 C.3     1  UNL1        0.1007
     28 C         142.9480  137.3257  157.1598 C.ar    1  UNL1        0.0129
     29 C         143.6334  137.4555  155.8319 C.ar    1  UNL1        0.0176
     30 C         144.0973  136.0915  155.4145 C.ar    1  UNL1        0.0812
     31 N         143.6988  135.1187  156.4845 N.ar    1  UNL1       -0.2892
     32 C         142.9884  135.8815  157.5631 C.ar    1  UNL1        0.0785
     33 C         143.9639  133.6424  156.4771 C.ar    1  UNL1        0.1477
     34 C         144.5114  132.9725  157.7024 C.ar    1  UNL1        0.0374
     35 C         144.7766  131.4962  157.6950 C.ar    1  UNL1        0.0085
     36 C         144.4943  130.6897  156.4623 C.ar    1  UNL1        0.0906
     37 C         143.9468  131.3595  155.2369 C.ar    1  UNL1        0.1044
     38 N         143.6816  132.8358  155.2443 N.ar    1  UNL1       -0.2265
     39 C         144.7595  129.2133  156.4548 C.3     1  UNL1        0.4200
     40 F         145.0247  127.7370  156.4474 F       1  UNL1       -0.1658
     41 F         144.3653  129.1353  157.9000 F       1  UNL1       -0.1658
     42 F         145.1537  129.2914  155.0096 F       1  UNL1       -0.1658
@<TRIPOS>BOND
     1     8     9    2
     2     9     7    1
     3     7     1    1
     4     1     2    1
     5     2     3    1
     6     3     4    1
     7     4    27    1
     8    27    28    1
     9    28    29   ar
    10    29    30   ar
    11    30    31   ar
    12    31    33    1
    13    33    34   ar
    14    34    35   ar
    15    35    36   ar
    16    36    39    1
    17    39    40    1
    18    39    41    1
    19    39    42    1
    20    36    37   ar
    21    37    38   ar
    22    31    32   ar
    23     4     5    1
    24     5     6    1
    25     9    10   am
    26    10    12    1
    27    12    13    1
    28    13    14   ar
    29    14    15   ar
    30    15    16   ar
    31    16    17    1
    32    16    18   ar
    33    18    19   ar
    34    12    20    1
    35    20    21   ar
    36    21    22   ar
    37    22    23   ar
    38    23    24    1
    39    23    25   ar
    40    25    26   ar
    41     6     1    1
    42    19    13   ar
    43    26    20   ar
    44    32    28   ar
    45    38    33   ar
    46    10    11    1
