@<TRIPOS>MOLECULE
*****
 41 44 0 0 0
SMALL
GASTEIGER

@<TRIPOS>ATOM
      1 C         139.3822  139.6094  158.8403 C.3     1  UNL1        0.0889
      2 C         140.8082  140.0469  158.9983 C.3     1  UNL1        0.0383
      3 C         141.2602  139.6653  160.3767 C.3     1  UNL1        0.0739
      4 N         140.1134  138.9919  161.0707 N.3     1  UNL1       -0.2712
      5 C         138.9528  138.9574  160.1211 C.3     1  UNL1        0.0919
      6 O         137.9902  142.2223  158.3556 O.2     1  UNL1       -0.2733
      7 C         137.8384  141.0983  157.3740 C.2     1  UNL1        0.2425
      8 N         138.5344  139.7919  157.6163 N.am    1  UNL1       -0.3032
      9 H         138.4347  139.0541  156.9721 H       1  UNL1        0.1495
     10 C         136.9906  141.2807  156.1501 C.3     1  UNL1        0.1759
     11 N         135.4997  141.3840  156.2791 N.am    1  UNL1       -0.2931
     12 C         134.6340  140.2079  155.9369 C.2     1  UNL1        0.2462
     13 O         135.2591  138.9283  155.4658 O.2     1  UNL1       -0.2701
     14 H         135.0894  142.2239  156.5883 H       1  UNL1        0.1502
     15 C         133.1431  140.3112  156.0658 C.ar    1  UNL1        0.0533
     16 C         132.3956  141.3650  155.3037 C.ar    1  UNL1        0.0045
     17 C         130.9048  141.4683  155.4327 C.ar    1  UNL1        0.0001
     18 C         130.1614  140.5178  156.3237 C.ar    1  UNL1        0.0039
     19 C         130.9088  139.4640  157.0858 C.ar    1  UNL1        0.0716
     20 C         132.3997  139.3607  156.9568 C.ar    1  UNL1        0.0084
     21 C         130.1654  138.5135  157.9768 C.3     1  UNL1        0.4186
     22 F         129.4220  137.5630  158.8678 F       1  UNL1       -0.1659
     23 F         128.8867  138.8496  157.2684 F       1  UNL1       -0.1659
     24 F         131.4442  138.1774  158.6852 F       1  UNL1       -0.1659
     25 C         140.1252  138.4485  162.4688 C.3     1  UNL1        0.0721
     26 C         138.9018  138.5646  163.3289 C.3     1  UNL1        0.0174
     27 C         139.0307  138.9827  164.7636 C.3     1  UNL1        0.0048
     28 C         140.1220  139.9261  165.1747 C.3     1  UNL1        0.0216
     29 C         140.2509  140.3443  166.6096 C.3     1  UNL1        0.0937
     30 N         139.2884  139.8190  167.6331 N.am    1  UNL1       -0.2761
     31 C         139.4173  140.2372  169.0680 C.2     1  UNL1        0.2498
     32 O         138.4548  139.7119  170.0916 O.2     1  UNL1       -0.2699
     33 C         138.1971  138.8756  167.2220 C.3     1  UNL1        0.0937
     34 C         138.0682  138.4575  165.7873 C.3     1  UNL1        0.0216
     35 C         140.5086  141.1806  169.4791 C.ar    1  UNL1        0.0641
     36 C         140.2298  142.6508  169.5818 C.ar    1  UNL1        0.0054
     37 C         141.3212  143.5941  169.9929 C.ar    1  UNL1        0.0002
     38 C         142.6913  143.0672  170.3013 C.ar    1  UNL1        0.0009
     39 C         142.9701  141.5969  170.1986 C.ar    1  UNL1        0.0115
     40 C         141.8787  140.6535  169.7875 C.ar    1  UNL1        0.0620
     41 CL        142.1575  139.1833  169.6847 Cl      1  UNL1       -0.0821
@<TRIPOS>BOND
     1     6     7    2
     2     7    10    1
     3    10    11    1
     4    11    12   am
     5    12    13    2
     6    12    15    1
     7    15    16   ar
     8    16    17   ar
     9    17    18   ar
    10    18    19   ar
    11    19    21    1
    12    21    22    1
    13    21    23    1
    14    21    24    1
    15    19    20   ar
    16     7     8   am
    17     1     8    1
    18     1     2    1
    19     2     3    1
    20     3     4    1
    21     4    25    1
    22    25    26    1
    23    26    27    1
    24    27    28    1
    25    28    29    1
    26    29    30    1
    27    30    31   am
    28    31    32    2
    29    31    35    1
    30    35    36   ar
    31    36    37   ar
    32    37    38   ar
    33    38    39   ar
    34    39    40   ar
    35    40    41    1
    36    30    33    1
    37    33    34    1
    38     4     5    1
    39    20    15   ar
    40     5     1    1
    41    34    27    1
    42    40    35   ar
    43    11    14    1
    44     8     9    1
@<TRIPOS>MOLECULE
*****
 41 44 0 0 0
SMALL
GASTEIGER

@<TRIPOS>ATOM
      1 C         139.7998  138.8818  159.0764 C.3     1  UNL1        0.0889
      2 C         139.1133  140.2122  158.9836 C.3     1  UNL1        0.0383
      3 C         138.3938  140.4539  160.2774 C.3     1  UNL1        0.0739
      4 N         138.6357  139.2727  161.1699 N.3     1  UNL1       -0.2712
      5 C         139.5046  138.3011  160.4276 C.3     1  UNL1        0.0919
      6 O         142.5379  139.9496  158.4741 O.2     1  UNL1       -0.2733
      7 C         142.0039  138.7778  157.7048 C.2     1  UNL1        0.2425
      8 N         140.6349  138.2439  158.0060 N.am    1  UNL1       -0.3032
      9 H         140.2844  137.4748  157.5011 H       1  UNL1        0.1495
     10 C         142.8389  138.1399  156.6344 C.3     1  UNL1        0.1759
     11 N         143.0924  136.6617  156.6621 N.am    1  UNL1       -0.2931
     12 C         142.0608  135.7137  156.1264 C.2     1  UNL1        0.2462
     13 O         140.7756  136.2438  155.5631 O.2     1  UNL1       -0.2701
     14 H         143.9359  136.3137  157.0318 H       1  UNL1        0.1502
     15 C         142.3143  134.2354  156.1541 C.ar    1  UNL1        0.0533
     16 C         141.4340  133.3087  155.3690 C.ar    1  UNL1        0.0045
     17 C         141.6876  131.8306  155.3967 C.ar    1  UNL1        0.0001
     18 C         142.8213  131.2792  156.2094 C.ar    1  UNL1        0.0039
     19 C         143.7015  132.2059  156.9945 C.ar    1  UNL1        0.0716
     20 C         143.4480  133.6840  156.9668 C.ar    1  UNL1        0.0084
     21 C         144.8353  131.6545  157.8072 C.3     1  UNL1        0.4186
     22 F         145.9691  131.1030  158.6199 F       1  UNL1       -0.1659
     23 F         145.1826  133.0406  158.2632 F       1  UNL1       -0.1659
     24 F         144.4880  130.2683  157.3512 F       1  UNL1       -0.1659
     25 C         138.1022  139.0945  162.5604 C.3     1  UNL1        0.0721
     26 C         138.8919  138.3192  163.5730 C.3     1  UNL1        0.0174
     27 C         139.0009  138.8202  164.9826 C.3     1  UNL1        0.0048
     28 C         140.1221  139.7394  165.3673 C.3     1  UNL1        0.0216
     29 C         140.2311  140.2405  166.7770 C.3     1  UNL1        0.0937
     30 N         139.2189  139.8222  167.8019 N.am    1  UNL1       -0.2761
     31 C         139.3279  140.3232  169.2116 C.2     1  UNL1        0.2498
     32 O         138.3157  139.9050  170.2366 O.2     1  UNL1       -0.2699
     33 C         138.0977  138.9029  167.4172 C.3     1  UNL1        0.0937
     34 C         137.9887  138.4019  166.0076 C.3     1  UNL1        0.0216
     35 C         140.4491  141.2425  169.5962 C.ar    1  UNL1        0.0641
     36 C         140.2288  142.7260  169.6176 C.ar    1  UNL1        0.0054
     37 C         141.3500  143.6452  170.0023 C.ar    1  UNL1        0.0002
     38 C         142.6914  143.0809  170.3655 C.ar    1  UNL1        0.0009
     39 C         142.9117  141.5973  170.3441 C.ar    1  UNL1        0.0115
     40 C         141.7905  140.6780  169.9594 C.ar    1  UNL1        0.0620
     41 CL        142.0108  139.1945  169.9380 Cl      1  UNL1       -0.0821
@<TRIPOS>BOND
     1     6     7    2
     2     7    10    1
     3    10    11    1
     4    11    12   am
     5    12    13    2
     6    12    15    1
     7    15    16   ar
     8    16    17   ar
     9    17    18   ar
    10    18    19   ar
    11    19    21    1
    12    21    22    1
    13    21    23    1
    14    21    24    1
    15    19    20   ar
    16     7     8   am
    17     1     8    1
    18     1     2    1
    19     2     3    1
    20     3     4    1
    21     4    25    1
    22    25    26    1
    23    26    27    1
    24    27    28    1
    25    28    29    1
    26    29    30    1
    27    30    31   am
    28    31    32    2
    29    31    35    1
    30    35    36   ar
    31    36    37   ar
    32    37    38   ar
    33    38    39   ar
    34    39    40   ar
    35    40    41    1
    36    30    33    1
    37    33    34    1
    38     4     5    1
    39    20    15   ar
    40     5     1    1
    41    34    27    1
    42    40    35   ar
    43    11    14    1
    44     8     9    1
@<TRIPOS>MOLECULE
*****
 41 44 0 0 0
SMALL
GASTEIGER

@<TRIPOS>ATOM
      1 C         143.0226  138.1302  160.0898 C.3     1  UNL1        0.0889
      2 C         142.6191  137.5090  158.7855 C.3     1  UNL1        0.0383
      3 C         143.0716  138.4165  157.6802 C.3     1  UNL1        0.0739
      4 N         143.7548  139.5987  158.3014 N.3     1  UNL1       -0.2712
      5 C         143.7244  139.4217  159.7906 C.3     1  UNL1        0.0919
      6 O         140.3386  138.4763  161.3846 O.2     1  UNL1       -0.2733
      7 C         141.4267  137.7332  162.1012 C.2     1  UNL1        0.2425
      8 N         142.7687  137.5601  161.4538 N.am    1  UNL1       -0.3032
      9 H         143.4829  137.0724  161.9242 H       1  UNL1        0.1495
     10 C         141.1730  137.1631  163.4652 C.3     1  UNL1        0.1759
     11 N         140.9227  138.0792  164.6263 N.am    1  UNL1       -0.2931
     12 C         141.9914  139.0318  165.0740 C.2     1  UNL1        0.2462
     13 O         143.3104  139.0684  164.3605 O.2     1  UNL1       -0.2701
     14 H         140.0571  138.0552  165.0946 H       1  UNL1        0.1502
     15 C         141.7412  139.9480  166.2351 C.ar    1  UNL1        0.0533
     16 C         142.6419  141.1241  166.4702 C.ar    1  UNL1        0.0045
     17 C         142.3917  142.0401  167.6313 C.ar    1  UNL1        0.0001
     18 C         141.2407  141.7800  168.5573 C.ar    1  UNL1        0.0039
     19 C         140.3399  140.6039  168.3222 C.ar    1  UNL1        0.0716
     20 C         140.5902  139.6879  167.1611 C.ar    1  UNL1        0.0084
     21 C         139.1889  140.3438  169.2483 C.3     1  UNL1        0.4186
     22 F         138.0379  140.0837  170.1743 F       1  UNL1       -0.1659
     23 F         138.5350  139.4963  168.1975 F       1  UNL1       -0.1659
     24 F         139.8428  141.1913  170.2990 F       1  UNL1       -0.1659
     25 C         144.3617  140.7547  157.5630 C.3     1  UNL1        0.0721
     26 C         143.8677  142.1484  157.8155 C.3     1  UNL1        0.0174
     27 C         142.6519  142.3707  158.6654 C.3     1  UNL1        0.0048
     28 C         142.8021  142.6413  160.1331 C.3     1  UNL1        0.0216
     29 C         141.5862  142.8636  160.9830 C.3     1  UNL1        0.0937
     30 N         140.2202  142.8153  160.3651 N.am    1  UNL1       -0.2761
     31 C         139.0043  143.0376  161.2150 C.2     1  UNL1        0.2498
     32 O         137.6383  142.9893  160.5972 O.2     1  UNL1       -0.2699
     33 C         140.0701  142.5447  158.8974 C.3     1  UNL1        0.0937
     34 C         141.2859  142.3224  158.0475 C.3     1  UNL1        0.0216
     35 C         139.1545  143.3082  162.6827 C.ar    1  UNL1        0.0641
     36 C         139.1135  142.1734  163.6626 C.ar    1  UNL1        0.0054
     37 C         139.2637  142.4440  165.1304 C.ar    1  UNL1        0.0002
     38 C         139.4548  143.8495  165.6181 C.ar    1  UNL1        0.0009
     39 C         139.4959  144.9844  164.6381 C.ar    1  UNL1        0.0115
     40 C         139.3457  144.7138  163.1704 C.ar    1  UNL1        0.0620
     41 CL        139.3867  145.8486  162.1905 Cl      1  UNL1       -0.0821
@<TRIPOS>BOND
     1     6     7    2
     2     7    10    1
     3    10    11    1
     4    11    12   am
     5    12    13    2
     6    12    15    1
     7    15    16   ar
     8    16    17   ar
     9    17    18   ar
    10    18    19   ar
    11    19    21    1
    12    21    22    1
    13    21    23    1
    14    21    24    1
    15    19    20   ar
    16     7     8   am
    17     1     8    1
    18     1     2    1
    19     2     3    1
    20     3     4    1
    21     4    25    1
    22    25    26    1
    23    26    27    1
    24    27    28    1
    25    28    29    1
    26    29    30    1
    27    30    31   am
    28    31    32    2
    29    31    35    1
    30    35    36   ar
    31    36    37   ar
    32    37    38   ar
    33    38    39   ar
    34    39    40   ar
    35    40    41    1
    36    30    33    1
    37    33    34    1
    38     4     5    1
    39    20    15   ar
    40     5     1    1
    41    34    27    1
    42    40    35   ar
    43    11    14    1
    44     8     9    1
@<TRIPOS>MOLECULE
*****
 41 44 0 0 0
SMALL
GASTEIGER

@<TRIPOS>ATOM
      1 C         143.0263  138.2203  160.3074 C.3     1  UNL1        0.0889
      2 C         142.3260  137.8217  159.0422 C.3     1  UNL1        0.0383
      3 C         142.7897  138.7366  157.9478 C.3     1  UNL1        0.0739
      4 N         143.7765  139.7007  158.5365 N.3     1  UNL1       -0.2712
      5 C         143.9227  139.3816  159.9949 C.3     1  UNL1        0.0919
      6 O         141.2750  139.4957  162.3827 O.2     1  UNL1       -0.2733
      7 C         141.9837  138.2092  162.6872 C.2     1  UNL1        0.2425
      8 N         142.8594  137.5715  161.6496 N.am    1  UNL1       -0.3032
      9 H         143.3245  136.7272  161.8494 H       1  UNL1        0.1495
     10 C         141.8169  137.5605  164.0292 C.3     1  UNL1        0.1759
     11 N         141.8858  138.3900  165.2771 N.am    1  UNL1       -0.2931
     12 C         140.6238  138.8851  165.9192 C.2     1  UNL1        0.2462
     13 O         139.2930  138.5506  165.3136 O.2     1  UNL1       -0.2701
     14 H         142.7593  138.6096  165.6746 H       1  UNL1        0.1502
     15 C         140.6928  139.7147  167.1671 C.ar    1  UNL1        0.0533
     16 C         139.4660  139.9071  168.0085 C.ar    1  UNL1        0.0045
     17 C         139.5349  140.7366  169.2563 C.ar    1  UNL1        0.0001
     18 C         140.8307  141.3738  169.6627 C.ar    1  UNL1        0.0039
     19 C         142.0574  141.1814  168.8213 C.ar    1  UNL1        0.0716
     20 C         141.9885  140.3518  167.5735 C.ar    1  UNL1        0.0084
     21 C         143.3531  141.8185  169.2277 C.3     1  UNL1        0.4186
     22 F         144.6488  142.4557  169.6341 F       1  UNL1       -0.1659
     23 F         143.4876  140.8303  170.3482 F       1  UNL1       -0.1659
     24 F         143.2187  142.8067  168.1073 F       1  UNL1       -0.1659
     25 C         144.4916  140.7923  157.7968 C.3     1  UNL1        0.0721
     26 C         144.4360  142.2029  158.3038 C.3     1  UNL1        0.0174
     27 C         143.9884  142.4777  159.7088 C.3     1  UNL1        0.0048
     28 C         142.5276  142.6281  160.0146 C.3     1  UNL1        0.0216
     29 C         142.0799  142.9029  161.4197 C.3     1  UNL1        0.0937
     30 N         143.0931  143.0274  162.5188 N.am    1  UNL1       -0.2761
     31 C         142.6453  143.3023  163.9239 C.2     1  UNL1        0.2498
     32 O         143.6585  143.4268  165.0230 O.2     1  UNL1       -0.2699
     33 C         144.5538  142.8771  162.2130 C.3     1  UNL1        0.0937
     34 C         145.0015  142.6022  160.8080 C.3     1  UNL1        0.0216
     35 C         141.1846  143.4526  164.2297 C.ar    1  UNL1        0.0641
     36 C         140.4130  142.2955  164.7913 C.ar    1  UNL1        0.0054
     37 C         138.9522  142.4458  165.0972 C.ar    1  UNL1        0.0002
     38 C         138.2631  143.7534  164.8413 C.ar    1  UNL1        0.0009
     39 C         139.0348  144.9105  164.2797 C.ar    1  UNL1        0.0115
     40 C         140.4955  144.7602  163.9738 C.ar    1  UNL1        0.0620
     41 CL        141.2672  145.9173  163.4122 Cl      1  UNL1       -0.0821
@<TRIPOS>BOND
     1     6     7    2
     2     7    10    1
     3    10    11    1
     4    11    12   am
     5    12    13    2
     6    12    15    1
     7    15    16   ar
     8    16    17   ar
     9    17    18   ar
    10    18    19   ar
    11    19    21    1
    12    21    22    1
    13    21    23    1
    14    21    24    1
    15    19    20   ar
    16     7     8   am
    17     1     8    1
    18     1     2    1
    19     2     3    1
    20     3     4    1
    21     4    25    1
    22    25    26    1
    23    26    27    1
    24    27    28    1
    25    28    29    1
    26    29    30    1
    27    30    31   am
    28    31    32    2
    29    31    35    1
    30    35    36   ar
    31    36    37   ar
    32    37    38   ar
    33    38    39   ar
    34    39    40   ar
    35    40    41    1
    36    30    33    1
    37    33    34    1
    38     4     5    1
    39    20    15   ar
    40     5     1    1
    41    34    27    1
    42    40    35   ar
    43    11    14    1
    44     8     9    1
@<TRIPOS>MOLECULE
*****
 41 44 0 0 0
SMALL
GASTEIGER

@<TRIPOS>ATOM
      1 C         138.1462  141.6123  157.5854 C.3     1  UNL1        0.0889
      2 C         137.2706  142.4424  156.6942 C.3     1  UNL1        0.0383
      3 C         138.1525  143.3678  155.9095 C.3     1  UNL1        0.0739
      4 N         139.5733  143.1097  156.3157 N.3     1  UNL1       -0.2712
      5 C         139.5693  142.0247  157.3515 C.3     1  UNL1        0.0919
      6 O         138.9249  141.7604  160.4788 O.2     1  UNL1       -0.2733
      7 C         138.0698  140.6295  159.9892 C.2     1  UNL1        0.2425
      8 N         137.6804  140.5554  158.5426 N.am    1  UNL1       -0.3032
      9 H         137.1192  139.8131  158.2212 H       1  UNL1        0.1495
     10 C         137.6040  139.5726  160.9463 C.3     1  UNL1        0.1759
     11 N         138.2412  139.4522  162.2989 N.am    1  UNL1       -0.2931
     12 C         137.8930  140.4300  163.3817 C.2     1  UNL1        0.2462
     13 O         136.9076  141.5283  163.1120 O.2     1  UNL1       -0.2701
     14 H         138.8880  138.7314  162.4760 H       1  UNL1        0.1502
     15 C         138.5302  140.3096  164.7344 C.ar    1  UNL1        0.0533
     16 C         137.9858  139.3345  165.7357 C.ar    1  UNL1        0.0045
     17 C         138.6230  139.2142  167.0883 C.ar    1  UNL1        0.0001
     18 C         139.8045  140.0689  167.4395 C.ar    1  UNL1        0.0039
     19 C         140.3489  141.0440  166.4381 C.ar    1  UNL1        0.0716
     20 C         139.7117  141.1644  165.0856 C.ar    1  UNL1        0.0084
     21 C         141.5304  141.8988  166.7893 C.3     1  UNL1        0.4186
     22 F         142.7120  142.7535  167.1405 F       1  UNL1       -0.1659
     23 F         142.2235  140.7021  167.3703 F       1  UNL1       -0.1659
     24 F         140.8374  143.0955  166.2083 F       1  UNL1       -0.1659
     25 C         140.7851  143.8130  155.7802 C.3     1  UNL1        0.0721
     26 C         141.5416  144.7720  156.6509 C.3     1  UNL1        0.0174
     27 C         141.5385  144.5951  158.1404 C.3     1  UNL1        0.0048
     28 C         142.5515  143.7007  158.7915 C.3     1  UNL1        0.0216
     29 C         142.5485  143.5237  160.2811 C.3     1  UNL1        0.0937
     30 N         141.5325  144.2413  161.1194 N.am    1  UNL1       -0.2761
     31 C         141.5295  144.0643  162.6090 C.2     1  UNL1        0.2498
     32 O         140.5134  144.7818  163.4475 O.2     1  UNL1       -0.2699
     33 C         140.5195  145.1357  160.4683 C.3     1  UNL1        0.0937
     34 C         140.5225  145.3125  158.9788 C.3     1  UNL1        0.0216
     35 C         142.5424  143.1699  163.2601 C.ar    1  UNL1        0.0641
     36 C         142.4137  141.6802  163.1419 C.ar    1  UNL1        0.0054
     37 C         143.4266  140.7859  163.7930 C.ar    1  UNL1        0.0002
     38 C         144.5684  141.3813  164.5623 C.ar    1  UNL1        0.0009
     39 C         144.6972  142.8711  164.6805 C.ar    1  UNL1        0.0115
     40 C         143.6842  143.7654  164.0294 C.ar    1  UNL1        0.0620
     41 CL        143.8130  145.2551  164.1476 Cl      1  UNL1       -0.0821
@<TRIPOS>BOND
     1     6     7    2
     2     7    10    1
     3    10    11    1
     4    11    12   am
     5    12    13    2
     6    12    15    1
     7    15    16   ar
     8    16    17   ar
     9    17    18   ar
    10    18    19   ar
    11    19    21    1
    12    21    22    1
    13    21    23    1
    14    21    24    1
    15    19    20   ar
    16     7     8   am
    17     1     8    1
    18     1     2    1
    19     2     3    1
    20     3     4    1
    21     4    25    1
    22    25    26    1
    23    26    27    1
    24    27    28    1
    25    28    29    1
    26    29    30    1
    27    30    31   am
    28    31    32    2
    29    31    35    1
    30    35    36   ar
    31    36    37   ar
    32    37    38   ar
    33    38    39   ar
    34    39    40   ar
    35    40    41    1
    36    30    33    1
    37    33    34    1
    38     4     5    1
    39    20    15   ar
    40     5     1    1
    41    34    27    1
    42    40    35   ar
    43    11    14    1
    44     8     9    1
@<TRIPOS>MOLECULE
*****
 41 44 0 0 0
SMALL
GASTEIGER

@<TRIPOS>ATOM
      1 C         141.8473  144.6349  159.6058 C.3     1  UNL1        0.0889
      2 C         141.6481  145.4003  158.3313 C.3     1  UNL1        0.0383
      3 C         142.0235  144.5038  157.1887 C.3     1  UNL1        0.0739
      4 N         142.4547  143.1843  157.7571 N.3     1  UNL1       -0.2712
      5 C         142.3458  143.2653  159.2510 C.3     1  UNL1        0.0919
      6 O         139.2174  144.0973  160.9454 O.2     1  UNL1       -0.2733
      7 C         140.2778  144.8799  161.6617 C.2     1  UNL1        0.2425
      8 N         141.5927  145.1487  160.9919 N.am    1  UNL1       -0.3032
      9 H         142.2887  145.6624  161.4620 H       1  UNL1        0.1495
     10 C         140.0232  145.3938  163.0477 C.3     1  UNL1        0.1759
     11 N         140.0310  144.4475  164.2117 N.am    1  UNL1       -0.2931
     12 C         141.1457  143.4556  164.3644 C.2     1  UNL1        0.2462
     13 O         142.2527  143.4099  163.3533 O.2     1  UNL1       -0.2701
     14 H         139.3044  144.4776  164.8753 H       1  UNL1        0.1502
     15 C         141.1535  142.5094  165.5283 C.ar    1  UNL1        0.0533
     16 C         140.3675  142.8339  166.7640 C.ar    1  UNL1        0.0045
     17 C         140.3753  141.8877  167.9278 C.ar    1  UNL1        0.0001
     18 C         141.1690  140.6169  167.8560 C.ar    1  UNL1        0.0039
     19 C         141.9549  140.2924  166.6203 C.ar    1  UNL1        0.0716
     20 C         141.9472  141.2386  165.4565 C.ar    1  UNL1        0.0084
     21 C         142.7487  139.0216  166.5485 C.3     1  UNL1        0.4186
     22 F         143.5424  137.7508  166.4767 F       1  UNL1       -0.1659
     23 F         142.4507  138.9184  165.0820 F       1  UNL1       -0.1659
     24 F         143.0466  139.1248  168.0150 F       1  UNL1       -0.1659
     25 C         142.9141  141.9930  156.9699 C.3     1  UNL1        0.0721
     26 C         142.7307  140.6115  157.5245 C.3     1  UNL1        0.0174
     27 C         141.5821  140.3188  158.4438 C.3     1  UNL1        0.0048
     28 C         141.8344  140.0536  159.8984 C.3     1  UNL1        0.0216
     29 C         140.6858  139.7609  160.8178 C.3     1  UNL1        0.0937
     30 N         139.2849  139.7333  160.2823 N.am    1  UNL1       -0.2761
     31 C         138.1363  139.4406  161.2016 C.2     1  UNL1        0.2498
     32 O         136.7353  139.4131  160.6662 O.2     1  UNL1       -0.2699
     33 C         139.0325  139.9985  158.8276 C.3     1  UNL1        0.0937
     34 C         140.1811  140.2912  157.9084 C.3     1  UNL1        0.0216
     35 C         138.3887  139.1754  162.6563 C.ar    1  UNL1        0.0641
     36 C         138.8597  137.8227  163.1013 C.ar    1  UNL1        0.0054
     37 C         139.1120  137.5576  164.5559 C.ar    1  UNL1        0.0002
     38 C         138.8934  138.6452  165.5655 C.ar    1  UNL1        0.0009
     39 C         138.4223  139.9980  165.1204 C.ar    1  UNL1        0.0115
     40 C         138.1699  140.2632  163.6658 C.ar    1  UNL1        0.0620
     41 CL        137.6989  141.6159  163.2207 Cl      1  UNL1       -0.0821
@<TRIPOS>BOND
     1     6     7    2
     2     7    10    1
     3    10    11    1
     4    11    12   am
     5    12    13    2
     6    12    15    1
     7    15    16   ar
     8    16    17   ar
     9    17    18   ar
    10    18    19   ar
    11    19    21    1
    12    21    22    1
    13    21    23    1
    14    21    24    1
    15    19    20   ar
    16     7     8   am
    17     1     8    1
    18     1     2    1
    19     2     3    1
    20     3     4    1
    21     4    25    1
    22    25    26    1
    23    26    27    1
    24    27    28    1
    25    28    29    1
    26    29    30    1
    27    30    31   am
    28    31    32    2
    29    31    35    1
    30    35    36   ar
    31    36    37   ar
    32    37    38   ar
    33    38    39   ar
    34    39    40   ar
    35    40    41    1
    36    30    33    1
    37    33    34    1
    38     4     5    1
    39    20    15   ar
    40     5     1    1
    41    34    27    1
    42    40    35   ar
    43    11    14    1
    44     8     9    1
@<TRIPOS>MOLECULE
*****
 41 44 0 0 0
SMALL
GASTEIGER

@<TRIPOS>ATOM
      1 C         141.1126  144.7534  160.0915 C.3     1  UNL1        0.0889
      2 C         141.3419  145.3394  158.7299 C.3     1  UNL1        0.0383
      3 C         140.4182  144.6525  157.7681 C.3     1  UNL1        0.0739
      4 N         139.6180  143.6420  158.5353 N.3     1  UNL1       -0.2712
      5 C         140.0472  143.7044  159.9713 C.3     1  UNL1        0.0919
      6 O         143.2151  142.9555  161.2520 O.2     1  UNL1       -0.2733
      7 C         142.8751  144.2484  161.9323 C.2     1  UNL1        0.2425
      8 N         141.8239  145.1473  161.3521 N.am    1  UNL1       -0.3032
      9 H         141.6007  145.9959  161.7986 H       1  UNL1        0.1495
     10 C         143.5863  144.6423  163.1928 C.3     1  UNL1        0.1759
     11 N         143.4424  143.8040  164.4285 N.am    1  UNL1       -0.2931
     12 C         142.1089  143.2176  164.7858 C.2     1  UNL1        0.2462
     13 O         140.9192  143.4693  163.9076 O.2     1  UNL1       -0.2701
     14 H         144.2232  143.6388  165.0049 H       1  UNL1        0.1502
     15 C         141.9650  142.3794  166.0215 C.ar    1  UNL1        0.0533
     16 C         143.0571  142.3652  167.0496 C.ar    1  UNL1        0.0045
     17 C         142.9132  141.5271  168.2851 C.ar    1  UNL1        0.0001
     18 C         141.6771  140.7030  168.4926 C.ar    1  UNL1        0.0039
     19 C         140.5849  140.7171  167.4645 C.ar    1  UNL1        0.0716
     20 C         140.7289  141.5553  166.2290 C.ar    1  UNL1        0.0084
     21 C         139.3489  139.8931  167.6720 C.3     1  UNL1        0.4186
     22 F         138.1128  139.0691  167.8795 F       1  UNL1       -0.1659
     23 F         139.5516  139.2514  166.3315 F       1  UNL1       -0.1659
     24 F         139.1461  140.5348  169.0126 F       1  UNL1       -0.1659
     25 C         138.5723  142.7294  157.9665 C.3     1  UNL1        0.0721
     26 C         138.2534  141.4343  158.6529 C.3     1  UNL1        0.0174
     27 C         139.3440  140.6524  159.3232 C.3     1  UNL1        0.0048
     28 C         139.6349  140.8674  160.7789 C.3     1  UNL1        0.0216
     29 C         140.7256  140.0855  161.4493 C.3     1  UNL1        0.0937
     30 N         141.5251  139.0886  160.6638 N.am    1  UNL1       -0.2761
     31 C         142.6157  138.3067  161.3342 C.2     1  UNL1        0.2498
     32 O         143.4153  137.3098  160.5487 O.2     1  UNL1       -0.2699
     33 C         141.2342  138.8736  159.2081 C.3     1  UNL1        0.0937
     34 C         140.1436  139.6555  158.5378 C.3     1  UNL1        0.0216
     35 C         142.9067  138.5217  162.7899 C.ar    1  UNL1        0.0641
     36 C         144.0467  139.4039  163.2045 C.ar    1  UNL1        0.0054
     37 C         144.3377  139.6189  164.6602 C.ar    1  UNL1        0.0002
     38 C         143.4885  138.9517  165.7013 C.ar    1  UNL1        0.0009
     39 C         142.3484  138.0695  165.2866 C.ar    1  UNL1        0.0115
     40 C         142.0574  137.8545  163.8309 C.ar    1  UNL1        0.0620
     41 CL        140.9174  136.9724  163.4162 Cl      1  UNL1       -0.0821
@<TRIPOS>BOND
     1     6     7    2
     2     7    10    1
     3    10    11    1
     4    11    12   am
     5    12    13    2
     6    12    15    1
     7    15    16   ar
     8    16    17   ar
     9    17    18   ar
    10    18    19   ar
    11    19    21    1
    12    21    22    1
    13    21    23    1
    14    21    24    1
    15    19    20   ar
    16     7     8   am
    17     1     8    1
    18     1     2    1
    19     2     3    1
    20     3     4    1
    21     4    25    1
    22    25    26    1
    23    26    27    1
    24    27    28    1
    25    28    29    1
    26    29    30    1
    27    30    31   am
    28    31    32    2
    29    31    35    1
    30    35    36   ar
    31    36    37   ar
    32    37    38   ar
    33    38    39   ar
    34    39    40   ar
    35    40    41    1
    36    30    33    1
    37    33    34    1
    38     4     5    1
    39    20    15   ar
    40     5     1    1
    41    34    27    1
    42    40    35   ar
    43    11    14    1
    44     8     9    1
@<TRIPOS>MOLECULE
*****
 41 44 0 0 0
SMALL
GASTEIGER

@<TRIPOS>ATOM
      1 C         142.5364  143.8633  160.0391 C.3     1  UNL1        0.0889
      2 C         142.1686  144.3872  158.6825 C.3     1  UNL1        0.0383
      3 C         142.6143  143.3829  157.6614 C.3     1  UNL1        0.0739
      4 N         143.2575  142.2383  158.3868 N.3     1  UNL1       -0.2712
      5 C         143.2093  142.5353  159.8563 C.3     1  UNL1        0.0919
      6 O         139.9835  143.3392  161.5252 O.2     1  UNL1       -0.2733
      7 C         141.0004  144.2854  162.0916 C.2     1  UNL1        0.2425
      8 N         142.2768  144.5474  161.3486 N.am    1  UNL1       -0.3032
      9 H         142.9442  145.1684  161.7204 H       1  UNL1        0.1495
     10 C         140.7409  144.9694  163.4010 C.3     1  UNL1        0.1759
     11 N         140.5355  144.1559  164.6445 N.am    1  UNL1       -0.2931
     12 C         141.5271  143.0946  165.0187 C.2     1  UNL1        0.2462
     13 O         142.7242  142.8466  164.1495 O.2     1  UNL1       -0.2701
     14 H         139.7498  144.3186  165.2150 H       1  UNL1        0.1502
     15 C         141.3217  142.2811  166.2621 C.ar    1  UNL1        0.0533
     16 C         141.7459  140.8427  166.2960 C.ar    1  UNL1        0.0045
     17 C         141.5405  140.0293  167.5394 C.ar    1  UNL1        0.0001
     18 C         140.9109  140.6542  168.7490 C.ar    1  UNL1        0.0039
     19 C         140.4868  142.0926  168.7151 C.ar    1  UNL1        0.0716
     20 C         140.6922  142.9060  167.4717 C.ar    1  UNL1        0.0084
     21 C         139.8572  142.7175  169.9247 C.3     1  UNL1        0.4186
     22 F         139.2277  143.3425  171.1343 F       1  UNL1       -0.1659
     23 F         140.4329  144.0474  169.5373 F       1  UNL1       -0.1659
     24 F         139.2816  141.3877  170.3122 F       1  UNL1       -0.1659
     25 C         143.8456  141.0121  157.7539 C.3     1  UNL1        0.0721
     26 C         143.2244  139.6693  158.0008 C.3     1  UNL1        0.0174
     27 C         141.9931  139.5573  158.8502 C.3     1  UNL1        0.0048
     28 C         142.1194  139.3750  160.3337 C.3     1  UNL1        0.0216
     29 C         140.8881  139.2630  161.1831 C.3     1  UNL1        0.0937
     30 N         139.5306  139.3334  160.5488 N.am    1  UNL1       -0.2761
     31 C         138.2993  139.2214  161.3983 C.2     1  UNL1        0.2498
     32 O         136.9417  139.2917  160.7641 O.2     1  UNL1       -0.2699
     33 C         139.4043  139.5157  159.0653 C.3     1  UNL1        0.0937
     34 C         140.6356  139.6277  158.2160 C.3     1  UNL1        0.0216
     35 C         138.4255  139.0390  162.8818 C.ar    1  UNL1        0.0641
     36 C         138.9018  137.7302  163.4387 C.ar    1  UNL1        0.0054
     37 C         139.0280  137.5479  164.9222 C.ar    1  UNL1        0.0002
     38 C         138.6781  138.6744  165.8487 C.ar    1  UNL1        0.0009
     39 C         138.2018  139.9832  165.2918 C.ar    1  UNL1        0.0115
     40 C         138.0755  140.1656  163.8083 C.ar    1  UNL1        0.0620
     41 CL        137.5993  141.4743  163.2514 Cl      1  UNL1       -0.0821
@<TRIPOS>BOND
     1     6     7    2
     2     7    10    1
     3    10    11    1
     4    11    12   am
     5    12    13    2
     6    12    15    1
     7    15    16   ar
     8    16    17   ar
     9    17    18   ar
    10    18    19   ar
    11    19    21    1
    12    21    22    1
    13    21    23    1
    14    21    24    1
    15    19    20   ar
    16     7     8   am
    17     1     8    1
    18     1     2    1
    19     2     3    1
    20     3     4    1
    21     4    25    1
    22    25    26    1
    23    26    27    1
    24    27    28    1
    25    28    29    1
    26    29    30    1
    27    30    31   am
    28    31    32    2
    29    31    35    1
    30    35    36   ar
    31    36    37   ar
    32    37    38   ar
    33    38    39   ar
    34    39    40   ar
    35    40    41    1
    36    30    33    1
    37    33    34    1
    38     4     5    1
    39    20    15   ar
    40     5     1    1
    41    34    27    1
    42    40    35   ar
    43    11    14    1
    44     8     9    1
@<TRIPOS>MOLECULE
*****
 41 44 0 0 0
SMALL
GASTEIGER

@<TRIPOS>ATOM
      1 C         139.6232  139.7553  158.8987 C.3     1  UNL1        0.0889
      2 C         138.5968  140.4524  158.0557 C.3     1  UNL1        0.0383
      3 C         139.3189  141.2414  157.0041 C.3     1  UNL1        0.0739
      4 N         140.7917  141.0321  157.1972 N.3     1  UNL1       -0.2712
      5 C         140.9797  140.1136  158.3681 C.3     1  UNL1        0.0919
      6 O         137.9850  140.7598  161.2025 O.2     1  UNL1       -0.2733
      7 C         138.5233  139.3599  161.2191 C.2     1  UNL1        0.2425
      8 N         139.3424  138.8576  160.0672 N.am    1  UNL1       -0.3032
      9 H         139.6957  137.9388  160.0781 H       1  UNL1        0.1495
     10 C         138.2426  138.4622  162.3875 C.3     1  UNL1        0.1759
     11 N         138.8523  138.7596  163.7254 N.am    1  UNL1       -0.2931
     12 C         140.3390  138.6780  163.9069 C.2     1  UNL1        0.2462
     13 O         141.2161  138.2990  162.7506 O.2     1  UNL1       -0.2701
     14 H         138.2766  139.0084  164.4843 H       1  UNL1        0.1502
     15 C         140.9487  138.9755  165.2448 C.ar    1  UNL1        0.0533
     16 C         142.3880  138.6421  165.5039 C.ar    1  UNL1        0.0045
     17 C         142.9976  138.9396  166.8418 C.ar    1  UNL1        0.0001
     18 C         142.1679  139.5704  167.9205 C.ar    1  UNL1        0.0039
     19 C         140.7286  139.9038  167.6614 C.ar    1  UNL1        0.0716
     20 C         140.1190  139.6063  166.3235 C.ar    1  UNL1        0.0084
     21 C         139.8989  140.5346  168.7401 C.3     1  UNL1        0.4186
     22 F         139.0692  141.1654  169.8188 F       1  UNL1       -0.1659
     23 F         138.7347  139.6739  168.3480 F       1  UNL1       -0.1659
     24 F         141.0631  141.3954  169.1322 F       1  UNL1       -0.1659
     25 C         141.8845  141.6353  156.3654 C.3     1  UNL1        0.0721
     26 C         142.7171  142.7539  156.9180 C.3     1  UNL1        0.0174
     27 C         142.4665  143.2595  158.3078 C.3     1  UNL1        0.0048
     28 C         143.1778  142.6364  159.4722 C.3     1  UNL1        0.0216
     29 C         142.9272  143.1419  160.8621 C.3     1  UNL1        0.0937
     30 N         141.9653  144.2706  161.0874 N.am    1  UNL1       -0.2761
     31 C         141.7147  144.7762  162.4773 C.2     1  UNL1        0.2498
     32 O         140.7527  145.9049  162.7027 O.2     1  UNL1       -0.2699
     33 C         141.2539  144.8937  159.9230 C.3     1  UNL1        0.0937
     34 C         141.5046  144.3882  158.5332 C.3     1  UNL1        0.0216
     35 C         142.4260  144.1531  163.6417 C.ar    1  UNL1        0.0641
     36 C         143.7582  144.6857  164.0789 C.ar    1  UNL1        0.0054
     37 C         144.4695  144.0626  165.2433 C.ar    1  UNL1        0.0002
     38 C         143.8485  142.9068  165.9703 C.ar    1  UNL1        0.0009
     39 C         142.5162  142.3742  165.5330 C.ar    1  UNL1        0.0115
     40 C         141.8049  142.9973  164.3686 C.ar    1  UNL1        0.0620
     41 CL        140.4726  142.4647  163.9313 Cl      1  UNL1       -0.0821
@<TRIPOS>BOND
     1     6     7    2
     2     7    10    1
     3    10    11    1
     4    11    12   am
     5    12    13    2
     6    12    15    1
     7    15    16   ar
     8    16    17   ar
     9    17    18   ar
    10    18    19   ar
    11    19    21    1
    12    21    22    1
    13    21    23    1
    14    21    24    1
    15    19    20   ar
    16     7     8   am
    17     1     8    1
    18     1     2    1
    19     2     3    1
    20     3     4    1
    21     4    25    1
    22    25    26    1
    23    26    27    1
    24    27    28    1
    25    28    29    1
    26    29    30    1
    27    30    31   am
    28    31    32    2
    29    31    35    1
    30    35    36   ar
    31    36    37   ar
    32    37    38   ar
    33    38    39   ar
    34    39    40   ar
    35    40    41    1
    36    30    33    1
    37    33    34    1
    38     4     5    1
    39    20    15   ar
    40     5     1    1
    41    34    27    1
    42    40    35   ar
    43    11    14    1
    44     8     9    1
