@<TRIPOS>MOLECULE
*****
 36 39 0 0 0
SMALL
GASTEIGER

@<TRIPOS>ATOM
      1 C         142.7071  138.0421  158.2026 C.ar    1  UNL1        0.1233
      2 C         142.0058  138.3521  159.4919 C.ar    1  UNL1        0.1180
      3 N         142.6394  139.5773  160.0811 N.ar    1  UNL1       -0.2233
      4 N         143.7322  140.0246  159.1562 N.ar    1  UNL1       -0.0634
      5 N         143.7740  139.0757  157.9951 N.ar    1  UNL1       -0.1287
      6 C         142.2488  140.2392  161.3693 C.3     1  UNL1        0.1827
      7 C         142.7587  139.5837  162.6185 C.3     1  UNL1        0.0339
      8 C         142.5457  139.9961  164.0449 C.3     1  UNL1        0.0041
      9 C         141.7703  141.1658  164.5744 C.3     1  UNL1        0.0216
     10 C         141.0163  142.2121  163.8083 C.3     1  UNL1        0.0935
     11 N         140.8516  142.3470  162.3235 N.am    1  UNL1       -0.2780
     12 C         141.4002  141.4689  161.2381 C.2     1  UNL1        0.2481
     13 O         141.0542  141.8743  159.8359 O.2     1  UNL1       -0.2728
     14 C         143.1939  139.1234  165.0784 C.3     1  UNL1        0.0001
     15 C         144.5420  139.4464  164.5055 C.3     1  UNL1        0.0000
     16 C         141.8458  138.8004  165.6513 C.3     1  UNL1        0.0000
     17 C         143.8421  138.2506  166.1118 C.3     1  UNL1        0.0000
     18 C         140.0297  143.5143  161.8633 C.3     1  UNL1        0.0933
     19 C         138.7838  143.8941  162.6073 C.3     1  UNL1        0.0183
     20 C         138.0729  142.7103  162.0213 C.3     1  UNL1        0.0017
     21 C         139.4947  145.0778  163.1932 C.3     1  UNL1        0.0017
     22 C         137.5379  144.2739  163.3513 C.3     1  UNL1        0.0017
     23 C         142.9960  134.5658  156.3099 C.ar    1  UNL1        0.1547
     24 C         143.3073  135.7088  157.2301 C.ar    1  UNL1        0.0400
     25 C         142.3959  136.8990  157.2824 C.ar    1  UNL1        0.0241
     26 C         141.1733  136.9463  156.4146 C.ar    1  UNL1        0.0033
     27 C         140.8621  135.8033  155.4945 C.ar    1  UNL1        0.0207
     28 C         141.7735  134.6130  155.4421 C.ar    1  UNL1        0.0994
     29 N         141.4622  133.4701  154.5220 N.ar    1  UNL1       -0.2839
     30 C         141.6515  133.4593  153.0340 C.ar    1  UNL1        0.1826
     31 N         141.2132  132.1197  152.5207 N.ar    1  UNL1       -0.2280
     32 C         140.7531  131.3026  153.6914 C.ar    1  UNL1        0.0786
     33 C         140.2308  129.8976  153.6351 C.3     1  UNL1        0.0538
     34 C         140.9069  132.1371  154.9283 C.ar    1  UNL1        0.0963
     35 C         144.4470  132.7876  157.5277 C.3     1  UNL1        0.2525
     36 O         143.9073  133.3755  156.2576 O.3     1  UNL1       -0.4700
@<TRIPOS>BOND
     1    35    36    1
     2    36    23    1
     3    23    24   ar
     4    24    25   ar
     5    25     1    1
     6     1     2   ar
     7     2     3   ar
     8     6     3    1
     9     6     7    1
    10     7     8    1
    11     8    14    1
    12    14    15    1
    13    14    16    1
    14    14    17    1
    15     8     9    1
    16     9    10    1
    17    10    11    1
    18    11    18    1
    19    18    19    1
    20    19    20    1
    21    19    21    1
    22    19    22    1
    23    11    12   am
    24    12    13    2
    25     3     4   ar
    26     4     5   ar
    27    25    26   ar
    28    26    27   ar
    29    27    28   ar
    30    28    29    1
    31    29    30   ar
    32    30    31   ar
    33    31    32   ar
    34    32    33    1
    35    32    34   ar
    36    28    23   ar
    37    34    29   ar
    38     5     1   ar
    39    12     6    1
@<TRIPOS>MOLECULE
*****
 36 39 0 0 0
SMALL
GASTEIGER

@<TRIPOS>ATOM
      1 C         142.4085  138.6424  159.1602 C.ar    1  UNL1        0.1233
      2 C         141.3634  139.1297  160.1196 C.ar    1  UNL1        0.1180
      3 N         142.0102  140.1134  161.0492 N.ar    1  UNL1       -0.2233
      4 N         143.4550  140.2340  160.6644 N.ar    1  UNL1       -0.0634
      5 N         143.7011  139.3248  159.4968 N.ar    1  UNL1       -0.1287
      6 C         141.3315  140.8475  162.1674 C.3     1  UNL1        0.1827
      7 C         140.9683  142.2749  161.8827 C.3     1  UNL1        0.0339
      8 C         140.2896  143.2645  162.7828 C.3     1  UNL1        0.0041
      9 C         139.8066  143.0713  164.1896 C.3     1  UNL1        0.0216
     10 C         139.8828  141.8408  165.0440 C.3     1  UNL1        0.0935
     11 N         140.4610  140.4995  164.7025 N.am    1  UNL1       -0.2780
     12 C         141.1058  140.0575  163.4222 C.2     1  UNL1        0.2481
     13 O         141.5886  138.6376  163.3931 O.2     1  UNL1       -0.2728
     14 C         140.0642  144.6276  162.1986 C.3     1  UNL1        0.0001
     15 C         141.3711  144.5307  161.4687 C.3     1  UNL1        0.0000
     16 C         138.7574  144.7244  162.9284 C.3     1  UNL1        0.0000
     17 C         139.8389  145.9906  161.6143 C.3     1  UNL1        0.0000
     18 C         140.3844  139.4632  165.7842 C.3     1  UNL1        0.0933
     19 C         139.0610  139.1192  166.4009 C.3     1  UNL1        0.0183
     20 C         139.4538  139.8490  167.6511 C.3     1  UNL1        0.0017
     21 C         138.6682  138.3894  165.1507 C.3     1  UNL1        0.0017
     22 C         137.7376  138.7753  167.0176 C.3     1  UNL1        0.0017
     23 C         142.9721  135.5399  156.7505 C.ar    1  UNL1        0.1547
     24 C         143.1829  136.5349  157.8530 C.ar    1  UNL1        0.0400
     25 C         142.1978  137.6474  158.0577 C.ar    1  UNL1        0.0241
     26 C         141.0018  137.7648  157.1599 C.ar    1  UNL1        0.0033
     27 C         140.7911  136.7698  156.0575 C.ar    1  UNL1        0.0207
     28 C         141.7763  135.6573  155.8527 C.ar    1  UNL1        0.0994
     29 N         141.5654  134.6623  154.7502 N.ar    1  UNL1       -0.2839
     30 C         141.6778  134.9382  153.2801 C.ar    1  UNL1        0.1826
     31 N         141.3870  133.6630  152.5456 N.ar    1  UNL1       -0.2280
     32 C         141.0950  132.5991  153.5618 C.ar    1  UNL1        0.0786
     33 C         140.7527  131.1686  153.2672 C.3     1  UNL1        0.0538
     34 C         141.2052  133.2166  154.9243 C.ar    1  UNL1        0.0963
     35 C         144.1544  133.3939  157.6149 C.3     1  UNL1        0.2525
     36 O         143.9573  134.4274  156.5457 O.3     1  UNL1       -0.4700
@<TRIPOS>BOND
     1    35    36    1
     2    36    23    1
     3    23    24   ar
     4    24    25   ar
     5    25     1    1
     6     1     2   ar
     7     2     3   ar
     8     6     3    1
     9     6     7    1
    10     7     8    1
    11     8    14    1
    12    14    15    1
    13    14    16    1
    14    14    17    1
    15     8     9    1
    16     9    10    1
    17    10    11    1
    18    11    18    1
    19    18    19    1
    20    19    20    1
    21    19    21    1
    22    19    22    1
    23    11    12   am
    24    12    13    2
    25     3     4   ar
    26     4     5   ar
    27    25    26   ar
    28    26    27   ar
    29    27    28   ar
    30    28    29    1
    31    29    30   ar
    32    30    31   ar
    33    31    32   ar
    34    32    33    1
    35    32    34   ar
    36    28    23   ar
    37    34    29   ar
    38     5     1   ar
    39    12     6    1
@<TRIPOS>MOLECULE
*****
 36 39 0 0 0
SMALL
GASTEIGER

@<TRIPOS>ATOM
      1 C         143.2605  139.0979  160.1445 C.ar    1  UNL1        0.1233
      2 C         142.5817  137.9757  159.4165 C.ar    1  UNL1        0.1180
      3 N         142.9315  138.0881  157.9622 N.ar    1  UNL1       -0.2233
      4 N         143.8264  139.2797  157.7914 N.ar    1  UNL1       -0.0634
      5 N         144.0297  139.9038  159.1402 N.ar    1  UNL1       -0.1287
      6 C         142.4678  137.1701  156.8703 C.3     1  UNL1        0.1827
      7 C         143.0070  135.7712  156.9234 C.3     1  UNL1        0.0339
      8 C         142.7377  134.6291  155.9890 C.3     1  UNL1        0.0041
      9 C         141.8630  134.6037  154.7709 C.3     1  UNL1        0.0216
     10 C         141.0412  135.7140  154.1861 C.3     1  UNL1        0.0935
     11 N         140.8914  137.1241  154.6752 N.am    1  UNL1       -0.2780
     12 C         141.5263  137.7720  155.8698 C.2     1  UNL1        0.2481
     13 O         141.1730  139.2126  156.0934 O.2     1  UNL1       -0.2728
     14 C         143.4357  133.3423  156.3162 C.3     1  UNL1        0.0001
     15 C         143.7938  133.8808  157.6696 C.3     1  UNL1        0.0000
     16 C         143.0775  132.8038  154.9628 C.3     1  UNL1        0.0000
     17 C         144.1336  132.0556  156.6434 C.3     1  UNL1        0.0000
     18 C         139.9872  138.0023  153.8622 C.3     1  UNL1        0.0933
     19 C         138.6918  137.4607  153.3341 C.3     1  UNL1        0.0183
     20 C         139.3027  137.3294  151.9704 C.3     1  UNL1        0.0017
     21 C         138.0811  137.5920  154.6978 C.3     1  UNL1        0.0017
     22 C         137.3965  136.9192  152.8060 C.3     1  UNL1        0.0017
     23 C         141.7765  139.6383  163.7854 C.ar    1  UNL1        0.1547
     24 C         141.8535  139.3693  162.3117 C.ar    1  UNL1        0.0400
     25 C         143.1835  139.3669  161.6182 C.ar    1  UNL1        0.0241
     26 C         144.4366  139.6335  162.3984 C.ar    1  UNL1        0.0033
     27 C         144.3597  139.9025  163.8720 C.ar    1  UNL1        0.0207
     28 C         143.0296  139.9049  164.5656 C.ar    1  UNL1        0.0994
     29 N         142.9527  140.1739  166.0392 N.ar    1  UNL1       -0.2839
     30 C         142.9125  139.1383  167.1236 C.ar    1  UNL1        0.1826
     31 N         142.8375  139.8502  168.4419 N.ar    1  UNL1       -0.2280
     32 C         142.8313  141.3256  168.1721 C.ar    1  UNL1        0.0786
     33 C         142.7654  142.4107  169.2058 C.3     1  UNL1        0.0538
     34 C         142.9025  141.5258  166.6873 C.ar    1  UNL1        0.0963
     35 C         139.8700  138.3575  165.0000 C.3     1  UNL1        0.2525
     36 O         140.4465  139.6407  164.4790 O.3     1  UNL1       -0.4700
@<TRIPOS>BOND
     1    35    36    1
     2    36    23    1
     3    23    24   ar
     4    24    25   ar
     5    25     1    1
     6     1     2   ar
     7     2     3   ar
     8     6     3    1
     9     6     7    1
    10     7     8    1
    11     8    14    1
    12    14    15    1
    13    14    16    1
    14    14    17    1
    15     8     9    1
    16     9    10    1
    17    10    11    1
    18    11    18    1
    19    18    19    1
    20    19    20    1
    21    19    21    1
    22    19    22    1
    23    11    12   am
    24    12    13    2
    25     3     4   ar
    26     4     5   ar
    27    25    26   ar
    28    26    27   ar
    29    27    28   ar
    30    28    29    1
    31    29    30   ar
    32    30    31   ar
    33    31    32   ar
    34    32    33    1
    35    32    34   ar
    36    28    23   ar
    37    34    29   ar
    38     5     1   ar
    39    12     6    1
@<TRIPOS>MOLECULE
*****
 36 39 0 0 0
SMALL
GASTEIGER

@<TRIPOS>ATOM
      1 C         140.0486  138.7057  160.6553 C.ar    1  UNL1        0.1233
      2 C         141.3787  138.4220  160.0226 C.ar    1  UNL1        0.1180
      3 N         141.1782  138.3415  158.5383 N.ar    1  UNL1       -0.2233
      4 N         139.7242  138.5753  158.2535 N.ar    1  UNL1       -0.0634
      5 N         139.0260  138.8004  159.5620 N.ar    1  UNL1       -0.1287
      6 C         142.2445  138.0740  157.5177 C.3     1  UNL1        0.1827
      7 C         142.3972  136.6426  157.0959 C.3     1  UNL1        0.0339
      8 C         143.3602  136.0569  156.1061 C.3     1  UNL1        0.0041
      9 C         144.4082  136.7579  155.2937 C.3     1  UNL1        0.0216
     10 C         144.7522  138.2178  155.2703 C.3     1  UNL1        0.0935
     11 N         144.1330  139.3372  156.0537 N.am    1  UNL1       -0.2780
     12 C         143.0169  139.2731  157.0538 C.2     1  UNL1        0.2481
     13 O         142.6211  140.5813  157.6719 O.2     1  UNL1       -0.2728
     14 C         143.2621  134.5741  155.9018 C.3     1  UNL1        0.0001
     15 C         142.8243  134.7984  154.4848 C.3     1  UNL1        0.0000
     16 C         143.7000  134.3499  157.3188 C.3     1  UNL1        0.0000
     17 C         143.1640  133.0914  155.6975 C.3     1  UNL1        0.0000
     18 C         144.7056  140.7008  155.8038 C.3     1  UNL1        0.0933
     19 C         145.1570  141.0837  154.4255 C.3     1  UNL1        0.0183
     20 C         146.5829  141.0788  154.8912 C.3     1  UNL1        0.0017
     21 C         143.7312  141.0886  153.9598 C.3     1  UNL1        0.0017
     22 C         145.6086  141.4666  153.0473 C.3     1  UNL1        0.0017
     23 C         139.0568  140.3462  164.1302 C.ar    1  UNL1        0.1547
     24 C         139.3184  140.1856  162.6619 C.ar    1  UNL1        0.0400
     25 C         139.7870  138.8664  162.1236 C.ar    1  UNL1        0.0241
     26 C         139.9941  137.7077  163.0534 C.ar    1  UNL1        0.0033
     27 C         139.7326  137.8683  164.5217 C.ar    1  UNL1        0.0207
     28 C         139.2639  139.1876  165.0601 C.ar    1  UNL1        0.0994
     29 N         139.0024  139.3482  166.5283 N.ar    1  UNL1       -0.2839
     30 C         137.8169  138.8144  167.2764 C.ar    1  UNL1        0.1826
     31 N         137.9624  139.2071  168.7167 N.ar    1  UNL1       -0.2280
     32 C         139.2378  139.9836  168.8589 C.ar    1  UNL1        0.0786
     33 C         139.7760  140.5700  170.1304 C.3     1  UNL1        0.0538
     34 C         139.8807  140.0709  167.5064 C.ar    1  UNL1        0.0963
     35 C         137.7176  142.5520  163.8282 C.3     1  UNL1        0.2525
     36 O         138.5882  141.6655  164.6687 O.3     1  UNL1       -0.4700
@<TRIPOS>BOND
     1    35    36    1
     2    36    23    1
     3    23    24   ar
     4    24    25   ar
     5    25     1    1
     6     1     2   ar
     7     2     3   ar
     8     6     3    1
     9     6     7    1
    10     7     8    1
    11     8    14    1
    12    14    15    1
    13    14    16    1
    14    14    17    1
    15     8     9    1
    16     9    10    1
    17    10    11    1
    18    11    18    1
    19    18    19    1
    20    19    20    1
    21    19    21    1
    22    19    22    1
    23    11    12   am
    24    12    13    2
    25     3     4   ar
    26     4     5   ar
    27    25    26   ar
    28    26    27   ar
    29    27    28   ar
    30    28    29    1
    31    29    30   ar
    32    30    31   ar
    33    31    32   ar
    34    32    33    1
    35    32    34   ar
    36    28    23   ar
    37    34    29   ar
    38     5     1   ar
    39    12     6    1
@<TRIPOS>MOLECULE
*****
 36 39 0 0 0
SMALL
GASTEIGER

@<TRIPOS>ATOM
      1 C         139.8791  138.7921  160.4334 C.ar    1  UNL1        0.1233
      2 C         141.1942  138.4962  159.7754 C.ar    1  UNL1        0.1180
      3 N         140.9665  138.4290  158.2943 N.ar    1  UNL1       -0.2233
      4 N         139.5109  138.6834  158.0369 N.ar    1  UNL1       -0.0634
      5 N         138.8388  138.9078  159.3591 N.ar    1  UNL1       -0.1287
      6 C         142.0112  138.1554  157.2531 C.3     1  UNL1        0.1827
      7 C         142.2535  136.7088  156.9388 C.3     1  UNL1        0.0339
      8 C         143.2198  136.1141  155.9576 C.3     1  UNL1        0.0041
      9 C         144.1825  136.8191  155.0487 C.3     1  UNL1        0.0216
     10 C         144.4166  138.2928  154.8962 C.3     1  UNL1        0.0935
     11 N         143.7459  139.4256  155.6152 N.am    1  UNL1       -0.2780
     12 C         142.6753  139.3644  156.6641 C.2     1  UNL1        0.2481
     13 O         142.2071  140.6873  157.1940 O.2     1  UNL1       -0.2728
     14 C         143.2240  134.6164  155.8747 C.3     1  UNL1        0.0001
     15 C         142.7986  134.6950  154.4384 C.3     1  UNL1        0.0000
     16 C         143.6493  134.5379  157.3109 C.3     1  UNL1        0.0000
     17 C         143.2281  133.1188  155.7916 C.3     1  UNL1        0.0000
     18 C         144.2066  140.8015  155.2349 C.3     1  UNL1        0.0933
     19 C         145.6677  141.1393  155.2687 C.3     1  UNL1        0.0183
     20 C         145.6193  141.1985  156.7668 C.3     1  UNL1        0.0017
     21 C         145.7161  141.0800  153.7707 C.3     1  UNL1        0.0017
     22 C         147.1288  141.4771  155.3027 C.3     1  UNL1        0.0017
     23 C         140.4468  138.6249  164.3577 C.ar    1  UNL1        0.1547
     24 C         140.6805  138.4716  162.8839 C.ar    1  UNL1        0.0400
     25 C         139.6455  138.9454  161.9072 C.ar    1  UNL1        0.0241
     26 C         138.3767  139.5727  162.4042 C.ar    1  UNL1        0.0033
     27 C         138.1431  139.7260  163.8779 C.ar    1  UNL1        0.0207
     28 C         139.1781  139.2521  164.8547 C.ar    1  UNL1        0.0994
     29 N         138.9444  139.4055  166.3284 N.ar    1  UNL1       -0.2839
     30 C         137.8578  138.7432  167.1224 C.ar    1  UNL1        0.1826
     31 N         137.9982  139.1765  168.5516 N.ar    1  UNL1       -0.2280
     32 C         139.1716  140.1065  168.6408 C.ar    1  UNL1        0.0786
     33 C         139.6723  140.7774  169.8856 C.3     1  UNL1        0.0538
     34 C         139.7565  140.2481  167.2669 C.ar    1  UNL1        0.0963
     35 C         142.9075  138.5951  165.1910 C.3     1  UNL1        0.2525
     36 O         141.4819  138.1511  165.3345 O.3     1  UNL1       -0.4700
@<TRIPOS>BOND
     1    35    36    1
     2    36    23    1
     3    23    24   ar
     4    24    25   ar
     5    25     1    1
     6     1     2   ar
     7     2     3   ar
     8     6     3    1
     9     6     7    1
    10     7     8    1
    11     8    14    1
    12    14    15    1
    13    14    16    1
    14    14    17    1
    15     8     9    1
    16     9    10    1
    17    10    11    1
    18    11    18    1
    19    18    19    1
    20    19    20    1
    21    19    21    1
    22    19    22    1
    23    11    12   am
    24    12    13    2
    25     3     4   ar
    26     4     5   ar
    27    25    26   ar
    28    26    27   ar
    29    27    28   ar
    30    28    29    1
    31    29    30   ar
    32    30    31   ar
    33    31    32   ar
    34    32    33    1
    35    32    34   ar
    36    28    23   ar
    37    34    29   ar
    38     5     1   ar
    39    12     6    1
@<TRIPOS>MOLECULE
*****
 36 39 0 0 0
SMALL
GASTEIGER

@<TRIPOS>ATOM
      1 C         141.5561  138.9464  161.6228 C.ar    1  UNL1        0.1233
      2 C         142.6002  138.7106  160.5720 C.ar    1  UNL1        0.1180
      3 N         141.8987  138.3925  159.2848 N.ar    1  UNL1       -0.2233
      4 N         140.4211  138.4317  159.5402 N.ar    1  UNL1       -0.0634
      5 N         140.2094  138.7741  160.9852 N.ar    1  UNL1       -0.1287
      6 C         142.5588  138.0885  157.9726 C.3     1  UNL1        0.1827
      7 C         142.6999  136.6333  157.6368 C.3     1  UNL1        0.0339
      8 C         143.3075  136.0100  156.4151 C.3     1  UNL1        0.0041
      9 C         143.9242  136.6880  155.2278 C.3     1  UNL1        0.0216
     10 C         144.0855  138.1566  154.9686 C.3     1  UNL1        0.0935
     11 N         143.6700  139.3100  155.8329 N.am    1  UNL1       -0.2780
     12 C         142.9906  139.2796  157.1698 C.2     1  UNL1        0.2481
     13 O         142.7052  140.6174  157.7853 O.2     1  UNL1       -0.2728
     14 C         143.2971  134.5106  156.3759 C.3     1  UNL1        0.0001
     15 C         143.5754  134.4702  157.8493 C.3     1  UNL1        0.0000
     16 C         143.0189  134.5510  154.9025 C.3     1  UNL1        0.0000
     17 C         143.2867  133.0112  156.3367 C.3     1  UNL1        0.0000
     18 C         143.9742  140.6740  155.2882 C.3     1  UNL1        0.0933
     19 C         145.3421  140.9806  154.7543 C.3     1  UNL1        0.0183
     20 C         145.8826  141.0055  156.1533 C.3     1  UNL1        0.0017
     21 C         144.8015  140.9556  153.3553 C.3     1  UNL1        0.0017
     22 C         146.7099  141.2871  154.2204 C.3     1  UNL1        0.0017
     23 C         140.9215  139.9199  165.4176 C.ar    1  UNL1        0.1547
     24 C         140.6639  139.5727  163.9812 C.ar    1  UNL1        0.0400
     25 C         141.8136  139.2936  163.0592 C.ar    1  UNL1        0.0241
     26 C         143.2211  139.3618  163.5736 C.ar    1  UNL1        0.0033
     27 C         143.4787  139.7090  165.0099 C.ar    1  UNL1        0.0207
     28 C         142.3289  139.9881  165.9319 C.ar    1  UNL1        0.0994
     29 N         142.5866  140.3353  167.3682 N.ar    1  UNL1       -0.2839
     30 C         142.6463  139.3672  168.5123 C.ar    1  UNL1        0.1826
     31 N         142.9264  140.1452  169.7638 N.ar    1  UNL1       -0.2280
     32 C         143.0398  141.5942  169.3931 C.ar    1  UNL1        0.0786
     33 C         143.3149  142.7269  170.3373 C.3     1  UNL1        0.0538
     34 C         142.8297  141.7118  167.9126 C.ar    1  UNL1        0.0963
     35 C         138.6250  139.2354  166.4214 C.3     1  UNL1        0.2525
     36 O         139.7717  140.1990  166.3396 O.3     1  UNL1       -0.4700
@<TRIPOS>BOND
     1    35    36    1
     2    36    23    1
     3    23    24   ar
     4    24    25   ar
     5    25     1    1
     6     1     2   ar
     7     2     3   ar
     8     6     3    1
     9     6     7    1
    10     7     8    1
    11     8    14    1
    12    14    15    1
    13    14    16    1
    14    14    17    1
    15     8     9    1
    16     9    10    1
    17    10    11    1
    18    11    18    1
    19    18    19    1
    20    19    20    1
    21    19    21    1
    22    19    22    1
    23    11    12   am
    24    12    13    2
    25     3     4   ar
    26     4     5   ar
    27    25    26   ar
    28    26    27   ar
    29    27    28   ar
    30    28    29    1
    31    29    30   ar
    32    30    31   ar
    33    31    32   ar
    34    32    33    1
    35    32    34   ar
    36    28    23   ar
    37    34    29   ar
    38     5     1   ar
    39    12     6    1
@<TRIPOS>MOLECULE
*****
 36 39 0 0 0
SMALL
GASTEIGER

@<TRIPOS>ATOM
      1 C         141.9376  141.1668  160.9316 C.ar    1  UNL1        0.1233
      2 C         142.9825  140.4810  160.1022 C.ar    1  UNL1        0.1180
      3 N         142.8603  140.9838  158.6943 N.ar    1  UNL1       -0.2233
      4 N         141.7399  141.9803  158.6535 N.ar    1  UNL1       -0.0634
      5 N         141.1696  142.0934  160.0363 N.ar    1  UNL1       -0.1287
      6 C         143.7093  140.5639  157.5312 C.3     1  UNL1        0.1827
      7 C         143.2124  139.3790  156.7570 C.3     1  UNL1        0.0339
      8 C         143.8266  138.7220  155.5564 C.3     1  UNL1        0.0041
      9 C         145.0890  139.0875  154.8337 C.3     1  UNL1        0.0216
     10 C         146.0493  140.2003  155.1328 C.3     1  UNL1        0.0935
     11 N         145.9843  141.2224  156.2287 N.am    1  UNL1       -0.2780
     12 C         144.9428  141.3842  157.2960 C.2     1  UNL1        0.2481
     13 O         145.1643  142.5161  158.2551 O.2     1  UNL1       -0.2728
     14 C         143.0792  137.5436  155.0060 C.3     1  UNL1        0.0001
     15 C         142.0226  138.4640  154.4706 C.3     1  UNL1        0.0000
     16 C         144.1358  136.6233  155.5413 C.3     1  UNL1        0.0000
     17 C         142.3318  136.3654  154.4556 C.3     1  UNL1        0.0000
     18 C         147.1094  142.2139  156.2615 C.3     1  UNL1        0.0933
     19 C         147.8455  142.5551  154.9998 C.3     1  UNL1        0.0183
     20 C         146.6758  143.3732  154.5387 C.3     1  UNL1        0.0017
     21 C         149.0150  141.7369  155.4610 C.3     1  UNL1        0.0017
     22 C         148.5815  142.8963  153.7381 C.3     1  UNL1        0.0017
     23 C         141.0104  139.4210  164.3729 C.ar    1  UNL1        0.1547
     24 C         141.2459  139.6259  162.9057 C.ar    1  UNL1        0.0400
     25 C         141.7021  140.9618  162.3988 C.ar    1  UNL1        0.0241
     26 C         141.9228  142.0929  163.3590 C.ar    1  UNL1        0.0033
     27 C         141.6874  141.8880  164.8261 C.ar    1  UNL1        0.0207
     28 C         141.2311  140.5520  165.3331 C.ar    1  UNL1        0.0994
     29 N         140.9957  140.3472  166.8003 N.ar    1  UNL1       -0.2839
     30 C         142.0180  139.9021  167.8036 C.ar    1  UNL1        0.1826
     31 N         141.3506  139.8313  169.1452 N.ar    1  UNL1       -0.2280
     32 C         139.9159  140.2327  168.9709 C.ar    1  UNL1        0.0786
     33 C         138.8820  140.3029  170.0554 C.3     1  UNL1        0.0538
     34 C         139.6965  140.5515  167.5217 C.ar    1  UNL1        0.0963
     35 C         139.0892  137.7712  164.9537 C.3     1  UNL1        0.2525
     36 O         140.5542  138.0850  164.8800 O.3     1  UNL1       -0.4700
@<TRIPOS>BOND
     1    35    36    1
     2    36    23    1
     3    23    24   ar
     4    24    25   ar
     5    25     1    1
     6     1     2   ar
     7     2     3   ar
     8     6     3    1
     9     6     7    1
    10     7     8    1
    11     8    14    1
    12    14    15    1
    13    14    16    1
    14    14    17    1
    15     8     9    1
    16     9    10    1
    17    10    11    1
    18    11    18    1
    19    18    19    1
    20    19    20    1
    21    19    21    1
    22    19    22    1
    23    11    12   am
    24    12    13    2
    25     3     4   ar
    26     4     5   ar
    27    25    26   ar
    28    26    27   ar
    29    27    28   ar
    30    28    29    1
    31    29    30   ar
    32    30    31   ar
    33    31    32   ar
    34    32    33    1
    35    32    34   ar
    36    28    23   ar
    37    34    29   ar
    38     5     1   ar
    39    12     6    1
@<TRIPOS>MOLECULE
*****
 36 39 0 0 0
SMALL
GASTEIGER

@<TRIPOS>ATOM
      1 C         142.9737  139.1700  160.0380 C.ar    1  UNL1        0.1233
      2 C         141.9629  138.4021  159.2389 C.ar    1  UNL1        0.1180
      3 N         142.4083  138.4010  157.8065 N.ar    1  UNL1       -0.2233
      4 N         143.6943  139.1682  157.7204 N.ar    1  UNL1       -0.0634
      5 N         144.0437  139.6435  159.0996 N.ar    1  UNL1       -0.1287
      6 C         141.6933  137.7475  156.6613 C.3     1  UNL1        0.1827
      7 C         140.4126  138.4020  156.2350 C.3     1  UNL1        0.0339
      8 C         139.4758  137.9965  155.1358 C.3     1  UNL1        0.0041
      9 C         139.5883  136.8365  154.1917 C.3     1  UNL1        0.0216
     10 C         140.6652  135.7953  154.1132 C.3     1  UNL1        0.0935
     11 N         141.8958  135.6571  154.9598 N.am    1  UNL1       -0.2780
     12 C         142.3532  136.5260  156.0938 C.2     1  UNL1        0.2481
     13 O         143.6411  136.1194  156.7465 O.2     1  UNL1       -0.2728
     14 C         138.2667  138.8661  154.9574 C.3     1  UNL1        0.0001
     15 C         138.9956  140.0105  155.5972 C.3     1  UNL1        0.0000
     16 C         137.5379  137.7218  154.3177 C.3     1  UNL1        0.0000
     17 C         137.0577  139.7358  154.7791 C.3     1  UNL1        0.0000
     18 C         142.7866  134.4967  154.6285 C.3     1  UNL1        0.0933
     19 C         142.2146  133.1128  154.5420 C.3     1  UNL1        0.0183
     20 C         142.1978  133.0260  156.0395 C.3     1  UNL1        0.0017
     21 C         142.2313  133.1995  153.0447 C.3     1  UNL1        0.0017
     22 C         141.6425  131.7288  154.4556 C.3     1  UNL1        0.0017
     23 C         141.5664  139.5807  163.7260 C.ar    1  UNL1        0.1547
     24 C         141.6169  139.3302  162.2478 C.ar    1  UNL1        0.0400
     25 C         142.9231  139.4204  161.5161 C.ar    1  UNL1        0.0241
     26 C         144.1790  139.7611  162.2624 C.ar    1  UNL1        0.0033
     27 C         144.1284  140.0115  163.7405 C.ar    1  UNL1        0.0207
     28 C         142.8222  139.9213  164.4723 C.ar    1  UNL1        0.0994
     29 N         142.7717  140.1717  165.9504 N.ar    1  UNL1       -0.2839
     30 C         142.8418  141.5118  166.6205 C.ar    1  UNL1        0.1826
     31 N         142.7558  141.2942  168.1022 N.ar    1  UNL1       -0.2280
     32 C         142.6325  139.8196  168.3477 C.ar    1  UNL1        0.0786
     33 C         142.5193  139.1554  169.6879 C.3     1  UNL1        0.0538
     34 C         142.6424  139.1258  167.0179 C.ar    1  UNL1        0.0963
     35 C         139.5603  138.1696  164.5831 C.3     1  UNL1        0.2525
     36 O         140.2601  139.4905  164.4578 O.3     1  UNL1       -0.4700
@<TRIPOS>BOND
     1    35    36    1
     2    36    23    1
     3    23    24   ar
     4    24    25   ar
     5    25     1    1
     6     1     2   ar
     7     2     3   ar
     8     6     3    1
     9     6     7    1
    10     7     8    1
    11     8    14    1
    12    14    15    1
    13    14    16    1
    14    14    17    1
    15     8     9    1
    16     9    10    1
    17    10    11    1
    18    11    18    1
    19    18    19    1
    20    19    20    1
    21    19    21    1
    22    19    22    1
    23    11    12   am
    24    12    13    2
    25     3     4   ar
    26     4     5   ar
    27    25    26   ar
    28    26    27   ar
    29    27    28   ar
    30    28    29    1
    31    29    30   ar
    32    30    31   ar
    33    31    32   ar
    34    32    33    1
    35    32    34   ar
    36    28    23   ar
    37    34    29   ar
    38     5     1   ar
    39    12     6    1
@<TRIPOS>MOLECULE
*****
 36 39 0 0 0
SMALL
GASTEIGER

@<TRIPOS>ATOM
      1 C         139.8635  141.3241  160.7301 C.ar    1  UNL1        0.1233
      2 C         139.0590  142.2895  159.9110 C.ar    1  UNL1        0.1180
      3 N         139.4373  142.1035  158.4715 N.ar    1  UNL1       -0.2233
      4 N         140.4754  141.0231  158.4008 N.ar    1  UNL1       -0.0634
      5 N         140.7388  140.5414  159.7968 N.ar    1  UNL1       -0.1287
      6 C         138.8760  142.8642  157.3069 C.3     1  UNL1        0.1827
      7 C         137.7117  142.2233  156.6112 C.3     1  UNL1        0.0339
      8 C         136.9370  142.7252  155.4288 C.3     1  UNL1        0.0041
      9 C         137.1353  143.9917  154.6501 C.3     1  UNL1        0.0216
     10 C         138.1571  145.0693  154.8614 C.3     1  UNL1        0.0935
     11 N         139.2330  145.1465  155.9036 N.am    1  UNL1       -0.2780
     12 C         139.5529  144.1651  156.9920 C.2     1  UNL1        0.2481
     13 O         140.7018  144.5333  157.8833 O.2     1  UNL1       -0.2728
     14 C         135.8159  141.8438  154.9637 C.3     1  UNL1        0.0001
     15 C         135.8295  141.1304  156.2831 C.3     1  UNL1        0.0000
     16 C         135.8024  142.5571  153.6443 C.3     1  UNL1        0.0000
     17 C         134.6949  140.9624  154.4987 C.3     1  UNL1        0.0000
     18 C         140.1043  146.3663  155.8505 C.3     1  UNL1        0.0933
     19 C         139.5056  147.7019  155.5220 C.3     1  UNL1        0.0183
     20 C         138.8809  147.7571  156.8847 C.3     1  UNL1        0.0017
     21 C         140.1302  147.6467  154.1594 C.3     1  UNL1        0.0017
     22 C         138.9069  149.0374  155.1935 C.3     1  UNL1        0.0017
     23 C         140.8753  140.3572  164.4438 C.ar    1  UNL1        0.1547
     24 C         140.9358  140.5125  162.9530 C.ar    1  UNL1        0.0400
     25 C         139.8031  141.1687  162.2209 C.ar    1  UNL1        0.0241
     26 C         138.6098  141.6696  162.9793 C.ar    1  UNL1        0.0033
     27 C         138.5493  141.5143  164.4700 C.ar    1  UNL1        0.0207
     28 C         139.6821  140.8580  165.2023 C.ar    1  UNL1        0.0994
     29 N         139.6216  140.7027  166.6930 N.ar    1  UNL1       -0.2839
     30 C         138.9974  139.5587  167.4357 C.ar    1  UNL1        0.1826
     31 N         139.1647  139.8132  168.9044 N.ar    1  UNL1       -0.2280
     32 C         139.8922  141.1145  169.0695 C.ar    1  UNL1        0.0786
     33 C         140.2709  141.7538  170.3725 C.3     1  UNL1        0.0538
     34 C         140.1746  141.6643  167.7028 C.ar    1  UNL1        0.0963
     35 C         142.5706  138.4024  164.6786 C.3     1  UNL1        0.2525
     36 O         142.0081  139.7009  165.1761 O.3     1  UNL1       -0.4700
@<TRIPOS>BOND
     1    35    36    1
     2    36    23    1
     3    23    24   ar
     4    24    25   ar
     5    25     1    1
     6     1     2   ar
     7     2     3   ar
     8     6     3    1
     9     6     7    1
    10     7     8    1
    11     8    14    1
    12    14    15    1
    13    14    16    1
    14    14    17    1
    15     8     9    1
    16     9    10    1
    17    10    11    1
    18    11    18    1
    19    18    19    1
    20    19    20    1
    21    19    21    1
    22    19    22    1
    23    11    12   am
    24    12    13    2
    25     3     4   ar
    26     4     5   ar
    27    25    26   ar
    28    26    27   ar
    29    27    28   ar
    30    28    29    1
    31    29    30   ar
    32    30    31   ar
    33    31    32   ar
    34    32    33    1
    35    32    34   ar
    36    28    23   ar
    37    34    29   ar
    38     5     1   ar
    39    12     6    1
