@<TRIPOS>MOLECULE
*****
 31 35 0 0 0
SMALL
GASTEIGER

@<TRIPOS>ATOM
      1 N         141.9002  140.2995  165.6658 N.ar    1  UNL1       -0.3052
      2 C         141.5022  139.4361  164.5056 C.ar    1  UNL1        0.0757
      3 C         142.2068  139.9475  163.2842 C.ar    1  UNL1       -0.0035
      4 C         143.0402  141.1270  163.6895 C.ar    1  UNL1        0.0136
      5 C         143.9472  142.0310  162.9084 C.ar    1  UNL1        0.0012
      6 C         144.6646  143.1526  163.5993 C.ar    1  UNL1        0.0001
      7 C         144.4750  143.3701  165.0713 C.ar    1  UNL1        0.0015
      8 C         143.5681  142.4661  165.8524 C.ar    1  UNL1        0.0175
      9 C         142.8507  141.3445  165.1615 C.ar    1  UNL1        0.0637
     10 F         140.0198  139.6816  171.3300 F       1  UNL1       -0.2042
     11 C         140.4899  139.8361  169.9140 C.ar    1  UNL1        0.1402
     12 C         141.9146  139.5293  169.5590 C.ar    1  UNL1        0.0311
     13 C         142.3847  139.6837  168.1429 C.ar    1  UNL1        0.0198
     14 C         141.4301  140.1450  167.0819 C.ar    1  UNL1        0.0642
     15 C         140.0053  140.4519  167.4369 C.ar    1  UNL1        0.0198
     16 C         139.5352  140.2974  168.8529 C.ar    1  UNL1        0.0311
     17 C         142.0973  139.3792  161.9003 C.3     1  UNL1        0.0266
     18 C         142.9667  138.2271  161.4916 C.3     1  UNL1        0.0218
     19 C         142.8572  137.6588  160.1078 C.3     1  UNL1        0.0725
     20 N         141.8783  138.2426  159.1326 N.3     1  UNL1       -0.2712
     21 C         141.0090  139.3946  159.5412 C.3     1  UNL1        0.0725
     22 C         141.1185  139.9629  160.9251 C.3     1  UNL1        0.0218
     23 C         141.7688  137.6743  157.7487 C.3     1  UNL1        0.0938
     24 C         142.9203  136.9183  157.1552 C.3     1  UNL1        0.1100
     25 N         142.7955  135.4468  156.8918 N.pl3   1  UNL1       -0.2854
     26 C         143.4800  134.3531  157.6569 C.3     1  UNL1        0.1190
     27 C         143.0718  133.0411  157.0551 C.3     1  UNL1        0.1488
     28 N         142.1351  133.3240  155.9182 N.2     1  UNL1       -0.2493
     29 C         141.9644  134.8108  155.8172 C.2     1  UNL1        0.1508
     30 S         141.1121  135.5345  154.8173 S.3     1  UNL1       -0.1081
     31 H         140.5057  134.6317  154.0008 H       1  UNL1        0.1098
@<TRIPOS>BOND
     1    10    11    1
     2    11    12   ar
     3    12    13   ar
     4    13    14   ar
     5    14     1    1
     6     1     2   ar
     7     2     3   ar
     8     3    17    1
     9    17    18    1
    10    18    19    1
    11    19    20    1
    12    20    23    1
    13    23    24    1
    14    24    25    1
    15    25    26    1
    16    26    27    1
    17    27    28    1
    18    28    29    2
    19    29    30    1
    20    20    21    1
    21    21    22    1
    22     3     4   ar
    23     4     5   ar
    24     5     6   ar
    25     6     7   ar
    26     7     8   ar
    27     8     9   ar
    28    14    15   ar
    29    15    16   ar
    30    16    11   ar
    31     9     1   ar
    32    22    17    1
    33     9     4   ar
    34    29    25    1
    35    30    31    1
@<TRIPOS>MOLECULE
*****
 31 35 0 0 0
SMALL
GASTEIGER

@<TRIPOS>ATOM
      1 N         140.7314  141.0876  164.0181 N.ar    1  UNL1       -0.3052
      2 C         140.5155  141.6084  162.6281 C.ar    1  UNL1        0.0757
      3 C         141.5457  142.6662  162.3642 C.ar    1  UNL1       -0.0035
      4 C         142.3984  142.7991  163.5911 C.ar    1  UNL1        0.0136
      5 C         143.5680  143.6825  163.9096 C.ar    1  UNL1        0.0012
      6 C         144.2343  143.5903  165.2503 C.ar    1  UNL1        0.0001
      7 C         143.7310  142.6147  166.2725 C.ar    1  UNL1        0.0015
      8 C         142.5614  141.7313  165.9540 C.ar    1  UNL1        0.0175
      9 C         141.8951  141.8235  164.6133 C.ar    1  UNL1        0.0637
     10 F         137.5066  136.8113  166.7226 F       1  UNL1       -0.2042
     11 C         138.3128  137.8803  166.0464 C.ar    1  UNL1        0.1402
     12 C         138.2375  139.2972  166.5331 C.ar    1  UNL1        0.0311
     13 C         139.0437  140.3662  165.8569 C.ar    1  UNL1        0.0198
     14 C         139.9252  140.0185  164.6942 C.ar    1  UNL1        0.0642
     15 C         140.0005  138.6016  164.2076 C.ar    1  UNL1        0.0198
     16 C         139.1942  137.5325  164.8837 C.ar    1  UNL1        0.0311
     17 C         141.6968  143.4529  161.0960 C.3     1  UNL1        0.0266
     18 C         140.9196  144.7213  160.9032 C.3     1  UNL1        0.0218
     19 C         141.0707  145.5081  159.6350 C.3     1  UNL1        0.0725
     20 N         141.9990  145.0265  158.5597 N.3     1  UNL1       -0.2712
     21 C         142.7762  143.7581  158.7526 C.3     1  UNL1        0.0725
     22 C         142.6251  142.9714  160.0208 C.3     1  UNL1        0.0218
     23 C         142.1501  145.8132  157.2916 C.3     1  UNL1        0.0938
     24 C         141.6614  145.2435  155.9929 C.3     1  UNL1        0.1100
     25 N         140.1908  145.0625  155.7595 N.pl3   1  UNL1       -0.2854
     26 C         139.4056  143.8098  156.0129 C.3     1  UNL1        0.1190
     27 C         137.9766  144.0753  155.6417 C.3     1  UNL1        0.1488
     28 N         137.8788  145.4921  155.1588 N.2     1  UNL1       -0.2493
     29 C         139.2472  146.1022  155.2316 C.2     1  UNL1        0.1508
     30 S         139.6086  147.5056  154.8446 S.3     1  UNL1       -0.1081
     31 H         138.4963  148.1567  154.4103 H       1  UNL1        0.1098
@<TRIPOS>BOND
     1    10    11    1
     2    11    12   ar
     3    12    13   ar
     4    13    14   ar
     5    14     1    1
     6     1     2   ar
     7     2     3   ar
     8     3    17    1
     9    17    18    1
    10    18    19    1
    11    19    20    1
    12    20    23    1
    13    23    24    1
    14    24    25    1
    15    25    26    1
    16    26    27    1
    17    27    28    1
    18    28    29    2
    19    29    30    1
    20    20    21    1
    21    21    22    1
    22     3     4   ar
    23     4     5   ar
    24     5     6   ar
    25     6     7   ar
    26     7     8   ar
    27     8     9   ar
    28    14    15   ar
    29    15    16   ar
    30    16    11   ar
    31     9     1   ar
    32    22    17    1
    33     9     4   ar
    34    29    25    1
    35    30    31    1
@<TRIPOS>MOLECULE
*****
 31 35 0 0 0
SMALL
GASTEIGER

@<TRIPOS>ATOM
      1 N         141.4506  140.6303  166.9341 N.ar    1  UNL1       -0.3052
      2 C         142.1861  140.4029  165.6467 C.ar    1  UNL1        0.0757
      3 C         141.3667  139.4720  164.8030 C.ar    1  UNL1       -0.0035
      4 C         140.1247  139.1241  165.5688 C.ar    1  UNL1        0.0136
      5 C         138.9533  138.2480  165.2370 C.ar    1  UNL1        0.0012
      6 C         137.8338  138.0877  166.2223 C.ar    1  UNL1        0.0001
      7 C         137.8856  138.8036  167.5395 C.ar    1  UNL1        0.0015
      8 C         139.0570  139.6798  167.8713 C.ar    1  UNL1        0.0175
      9 C         140.1766  139.8400  166.8859 C.ar    1  UNL1        0.0637
     10 F         143.2828  144.0933  171.4784 F       1  UNL1       -0.2042
     11 C         142.8248  143.2276  170.3423 C.ar    1  UNL1        0.1402
     12 C         141.4396  143.3866  169.7894 C.ar    1  UNL1        0.0311
     13 C         140.9815  142.5208  168.6533 C.ar    1  UNL1        0.0198
     14 C         141.9086  141.4961  168.0702 C.ar    1  UNL1        0.0642
     15 C         143.2940  141.3370  168.6231 C.ar    1  UNL1        0.0198
     16 C         143.7520  142.2028  169.7592 C.ar    1  UNL1        0.0311
     17 C         141.7261  138.9760  163.4337 C.3     1  UNL1        0.0266
     18 C         140.6846  138.9310  162.3550 C.3     1  UNL1        0.0218
     19 C         141.0440  138.4350  160.9858 C.3     1  UNL1        0.0725
     20 N         142.4448  137.9841  160.6951 N.3     1  UNL1       -0.2712
     21 C         143.4862  138.0291  161.7738 C.3     1  UNL1        0.0725
     22 C         143.1268  138.5251  163.1430 C.3     1  UNL1        0.0218
     23 C         142.8042  137.4881  159.3259 C.3     1  UNL1        0.0938
     24 C         142.3402  138.2365  158.1115 C.3     1  UNL1        0.1100
     25 N         141.4571  137.5597  157.1055 N.pl3   1  UNL1       -0.2854
     26 C         139.9718  137.7284  156.9814 C.3     1  UNL1        0.1190
     27 C         139.5008  136.8684  155.8461 C.3     1  UNL1        0.1488
     28 N         140.6952  136.1682  155.2686 N.2     1  UNL1       -0.2493
     29 C         141.9042  136.5955  156.0470 C.2     1  UNL1        0.1508
     30 S         143.3129  136.1387  155.8086 S.3     1  UNL1       -0.1081
     31 H         143.3361  135.2656  154.7662 H       1  UNL1        0.1098
@<TRIPOS>BOND
     1    10    11    1
     2    11    12   ar
     3    12    13   ar
     4    13    14   ar
     5    14     1    1
     6     1     2   ar
     7     2     3   ar
     8     3    17    1
     9    17    18    1
    10    18    19    1
    11    19    20    1
    12    20    23    1
    13    23    24    1
    14    24    25    1
    15    25    26    1
    16    26    27    1
    17    27    28    1
    18    28    29    2
    19    29    30    1
    20    20    21    1
    21    21    22    1
    22     3     4   ar
    23     4     5   ar
    24     5     6   ar
    25     6     7   ar
    26     7     8   ar
    27     8     9   ar
    28    14    15   ar
    29    15    16   ar
    30    16    11   ar
    31     9     1   ar
    32    22    17    1
    33     9     4   ar
    34    29    25    1
    35    30    31    1
@<TRIPOS>MOLECULE
*****
 31 35 0 0 0
SMALL
GASTEIGER

@<TRIPOS>ATOM
      1 N         140.9730  140.4084  163.7303 N.ar    1  UNL1       -0.3052
      2 C         140.5815  141.3634  162.6420 C.ar    1  UNL1        0.0757
      3 C         141.8368  141.9407  162.0581 C.ar    1  UNL1       -0.0035
      4 C         143.0042  141.3424  162.7857 C.ar    1  UNL1        0.0136
      5 C         144.4843  141.5376  162.6406 C.ar    1  UNL1        0.0012
      6 C         145.4306  140.7858  163.5291 C.ar    1  UNL1        0.0001
      7 C         144.8967  139.8388  164.5626 C.ar    1  UNL1        0.0015
      8 C         143.4166  139.6436  164.7076 C.ar    1  UNL1        0.0175
      9 C         142.4703  140.3954  163.8192 C.ar    1  UNL1        0.0637
     10 F         137.2104  137.2030  167.1317 F       1  UNL1       -0.2042
     11 C         138.1511  138.0044  166.2813 C.ar    1  UNL1        0.1402
     12 C         138.8819  137.3477  165.1479 C.ar    1  UNL1        0.0311
     13 C         139.8225  138.1491  164.2976 C.ar    1  UNL1        0.0198
     14 C         140.0324  139.6070  164.5807 C.ar    1  UNL1        0.0642
     15 C         139.3015  140.2637  165.7141 C.ar    1  UNL1        0.0198
     16 C         138.3609  139.4624  166.5645 C.ar    1  UNL1        0.0311
     17 C         141.9117  142.9406  160.9426 C.3     1  UNL1        0.0266
     18 C         142.8023  142.6833  159.7632 C.3     1  UNL1        0.0218
     19 C         142.8771  143.6833  158.6476 C.3     1  UNL1        0.0725
     20 N         142.0616  144.9405  158.7114 N.3     1  UNL1       -0.2712
     21 C         141.1711  145.1978  159.8907 C.3     1  UNL1        0.0725
     22 C         141.0962  144.1979  161.0063 C.3     1  UNL1        0.0218
     23 C         142.1365  145.9405  157.5958 C.3     1  UNL1        0.0938
     24 C         141.7496  145.5405  156.2029 C.3     1  UNL1        0.1100
     25 N         140.3012  145.4471  155.8243 N.pl3   1  UNL1       -0.2854
     26 C         139.4677  146.5528  155.2475 C.3     1  UNL1        0.1190
     27 C         138.0833  146.0208  155.0227 C.3     1  UNL1        0.1488
     28 N         138.0613  144.5863  155.4606 N.2     1  UNL1       -0.2493
     29 C         139.4320  144.2317  155.9560 C.2     1  UNL1        0.1508
     30 S         139.8585  142.8963  156.4895 S.3     1  UNL1       -0.1081
     31 H         138.8040  142.0380  156.4585 H       1  UNL1        0.1098
@<TRIPOS>BOND
     1    10    11    1
     2    11    12   ar
     3    12    13   ar
     4    13    14   ar
     5    14     1    1
     6     1     2   ar
     7     2     3   ar
     8     3    17    1
     9    17    18    1
    10    18    19    1
    11    19    20    1
    12    20    23    1
    13    23    24    1
    14    24    25    1
    15    25    26    1
    16    26    27    1
    17    27    28    1
    18    28    29    2
    19    29    30    1
    20    20    21    1
    21    21    22    1
    22     3     4   ar
    23     4     5   ar
    24     5     6   ar
    25     6     7   ar
    26     7     8   ar
    27     8     9   ar
    28    14    15   ar
    29    15    16   ar
    30    16    11   ar
    31     9     1   ar
    32    22    17    1
    33     9     4   ar
    34    29    25    1
    35    30    31    1
@<TRIPOS>MOLECULE
*****
 31 35 0 0 0
SMALL
GASTEIGER

@<TRIPOS>ATOM
      1 N         141.1476  142.4225  165.6909 N.ar    1  UNL1       -0.3052
      2 C         141.6966  143.2725  164.5836 C.ar    1  UNL1        0.0757
      3 C         141.0437  142.8439  163.3030 C.ar    1  UNL1       -0.0035
      4 C         140.0912  141.7290  163.6188 C.ar    1  UNL1        0.0136
      5 C         139.1737  140.9173  162.7532 C.ar    1  UNL1        0.0012
      6 C         138.3204  139.8452  163.3634 C.ar    1  UNL1        0.0001
      7 C         138.3847  139.5847  164.8392 C.ar    1  UNL1        0.0015
      8 C         139.3022  140.3963  165.7048 C.ar    1  UNL1        0.0175
      9 C         140.1554  141.4685  165.0946 C.ar    1  UNL1        0.0637
     10 F         142.6556  142.7759  171.4876 F       1  UNL1       -0.2042
     11 C         142.2786  142.6875  170.0384 C.ar    1  UNL1        0.1402
     12 C         143.2852  142.2217  169.0286 C.ar    1  UNL1        0.0311
     13 C         142.9082  142.1334  167.5795 C.ar    1  UNL1        0.0198
     14 C         141.5246  142.5108  167.1400 C.ar    1  UNL1        0.0642
     15 C         140.5179  142.9766  168.1499 C.ar    1  UNL1        0.0198
     16 C         140.8950  143.0650  169.5991 C.ar    1  UNL1        0.0311
     17 C         141.2985  143.4278  161.9450 C.3     1  UNL1        0.0266
     18 C         140.7046  144.7549  161.5757 C.3     1  UNL1        0.0218
     19 C         140.9594  145.3387  160.2176 C.3     1  UNL1        0.0725
     20 N         141.8080  144.5955  159.2289 N.3     1  UNL1       -0.2712
     21 C         142.4018  143.2685  159.5983 C.3     1  UNL1        0.0725
     22 C         142.1470  142.6847  160.9563 C.3     1  UNL1        0.0218
     23 C         142.0628  145.1793  157.8709 C.3     1  UNL1        0.0938
     24 C         141.0580  146.1052  157.2521 C.3     1  UNL1        0.1100
     25 N         139.8613  145.5462  156.5411 N.pl3   1  UNL1       -0.2854
     26 C         139.3769  144.1283  156.6110 C.3     1  UNL1        0.1190
     27 C         138.1551  144.0127  155.7485 C.3     1  UNL1        0.1488
     28 N         137.8844  145.3593  155.1454 N.2     1  UNL1       -0.2493
     29 C         138.9389  146.3070  155.6353 C.2     1  UNL1        0.1508
     30 S         139.0512  147.7603  155.2815 S.3     1  UNL1       -0.1081
     31 H         138.0407  148.1007  154.4372 H       1  UNL1        0.1098
@<TRIPOS>BOND
     1    10    11    1
     2    11    12   ar
     3    12    13   ar
     4    13    14   ar
     5    14     1    1
     6     1     2   ar
     7     2     3   ar
     8     3    17    1
     9    17    18    1
    10    18    19    1
    11    19    20    1
    12    20    23    1
    13    23    24    1
    14    24    25    1
    15    25    26    1
    16    26    27    1
    17    27    28    1
    18    28    29    2
    19    29    30    1
    20    20    21    1
    21    21    22    1
    22     3     4   ar
    23     4     5   ar
    24     5     6   ar
    25     6     7   ar
    26     7     8   ar
    27     8     9   ar
    28    14    15   ar
    29    15    16   ar
    30    16    11   ar
    31     9     1   ar
    32    22    17    1
    33     9     4   ar
    34    29    25    1
    35    30    31    1
@<TRIPOS>MOLECULE
*****
 31 35 0 0 0
SMALL
GASTEIGER

@<TRIPOS>ATOM
      1 N         141.1862  141.9882  162.8595 N.ar    1  UNL1       -0.3052
      2 C         140.9600  141.1099  161.6648 C.ar    1  UNL1        0.0757
      3 C         142.2820  140.5281  161.2603 C.ar    1  UNL1       -0.0035
      4 C         143.3253  141.0467  162.2051 C.ar    1  UNL1        0.0136
      5 C         144.8045  140.8139  162.2930 C.ar    1  UNL1        0.0012
      6 C         145.6064  141.4834  163.3694 C.ar    1  UNL1        0.0001
      7 C         144.9291  142.3859  164.3578 C.ar    1  UNL1        0.0015
      8 C         143.4499  142.6187  164.2698 C.ar    1  UNL1        0.0175
      9 C         142.6480  141.9492  163.1935 C.ar    1  UNL1        0.0637
     10 F         136.9817  145.1096  165.7887 F       1  UNL1       -0.2042
     11 C         138.0328  144.3292  165.0564 C.ar    1  UNL1        0.1402
     12 C         139.3573  144.9618  164.7472 C.ar    1  UNL1        0.0311
     13 C         140.4084  144.1814  164.0149 C.ar    1  UNL1        0.0198
     14 C         140.1351  142.7686  163.5918 C.ar    1  UNL1        0.0642
     15 C         138.8105  142.1360  163.9011 C.ar    1  UNL1        0.0198
     16 C         137.7595  142.9163  164.6334 C.ar    1  UNL1        0.0311
     17 C         142.5192  139.5919  160.1126 C.3     1  UNL1        0.0266
     18 C         142.6691  138.1205  160.3634 C.3     1  UNL1        0.0218
     19 C         142.9062  137.1844  159.2157 C.3     1  UNL1        0.0725
     20 N         142.9935  137.7194  157.8171 N.3     1  UNL1       -0.2712
     21 C         142.8437  139.1907  157.5663 C.3     1  UNL1        0.0725
     22 C         142.6065  140.1269  158.7140 C.3     1  UNL1        0.0218
     23 C         143.2307  136.7833  156.6693 C.3     1  UNL1        0.0938
     24 C         142.3333  135.5979  156.4707 C.3     1  UNL1        0.1100
     25 N         142.8558  134.2127  156.7124 N.pl3   1  UNL1       -0.2854
     26 C         143.9339  133.8343  157.6843 C.3     1  UNL1        0.1190
     27 C         144.1364  132.3505  157.5973 C.3     1  UNL1        0.1488
     28 N         143.1834  131.8120  156.5717 N.2     1  UNL1       -0.2493
     29 C         142.3920  132.9629  156.0248 C.2     1  UNL1        0.1508
     30 S         141.3243  132.8787  154.9747 S.3     1  UNL1       -0.1081
     31 H         141.1747  131.5850  154.5830 H       1  UNL1        0.1098
@<TRIPOS>BOND
     1    10    11    1
     2    11    12   ar
     3    12    13   ar
     4    13    14   ar
     5    14     1    1
     6     1     2   ar
     7     2     3   ar
     8     3    17    1
     9    17    18    1
    10    18    19    1
    11    19    20    1
    12    20    23    1
    13    23    24    1
    14    24    25    1
    15    25    26    1
    16    26    27    1
    17    27    28    1
    18    28    29    2
    19    29    30    1
    20    20    21    1
    21    21    22    1
    22     3     4   ar
    23     4     5   ar
    24     5     6   ar
    25     6     7   ar
    26     7     8   ar
    27     8     9   ar
    28    14    15   ar
    29    15    16   ar
    30    16    11   ar
    31     9     1   ar
    32    22    17    1
    33     9     4   ar
    34    29    25    1
    35    30    31    1
@<TRIPOS>MOLECULE
*****
 31 35 0 0 0
SMALL
GASTEIGER

@<TRIPOS>ATOM
      1 N         141.0353  142.4558  166.0255 N.ar    1  UNL1       -0.3052
      2 C         141.6008  143.3203  164.9380 C.ar    1  UNL1        0.0757
      3 C         140.9326  142.9410  163.6498 C.ar    1  UNL1       -0.0035
      4 C         139.9541  141.8420  163.9411 C.ar    1  UNL1        0.0136
      5 C         139.0136  141.0756  163.0591 C.ar    1  UNL1        0.0012
      6 C         138.1365  140.0094  163.6455 C.ar    1  UNL1        0.0001
      7 C         138.2000  139.7095  165.1138 C.ar    1  UNL1        0.0015
      8 C         139.1406  140.4759  165.9958 C.ar    1  UNL1        0.0175
      9 C         140.0176  141.5421  165.4095 C.ar    1  UNL1        0.0637
     10 F         142.5741  142.6227  171.8225 F       1  UNL1       -0.2042
     11 C         142.1894  142.5810  170.3733 C.ar    1  UNL1        0.1402
     12 C         140.8008  142.9636  169.9546 C.ar    1  UNL1        0.0311
     13 C         140.4161  142.9219  168.5053 C.ar    1  UNL1        0.0198
     14 C         141.4200  142.4975  167.4748 C.ar    1  UNL1        0.0642
     15 C         142.8087  142.1149  167.8935 C.ar    1  UNL1        0.0198
     16 C         143.1934  142.1566  169.3428 C.ar    1  UNL1        0.0311
     17 C         141.1965  143.5531  162.3060 C.3     1  UNL1        0.0266
     18 C         142.2864  143.0050  161.4331 C.3     1  UNL1        0.0218
     19 C         142.5503  143.6172  160.0894 C.3     1  UNL1        0.0725
     20 N         141.7243  144.7774  159.6185 N.3     1  UNL1       -0.2712
     21 C         140.6345  145.3254  160.4913 C.3     1  UNL1        0.0725
     22 C         140.3706  144.7133  161.8351 C.3     1  UNL1        0.0218
     23 C         141.9882  145.3895  158.2747 C.3     1  UNL1        0.0938
     24 C         140.8453  145.8837  157.4383 C.3     1  UNL1        0.1100
     25 N         140.9960  145.9890  155.9496 N.pl3   1  UNL1       -0.2854
     26 C         141.9915  145.2452  155.1095 C.3     1  UNL1        0.1190
     27 C         141.7884  145.6530  153.6802 C.3     1  UNL1        0.1488
     28 N         140.6674  146.6488  153.6372 N.2     1  UNL1       -0.2493
     29 C         140.1777  146.8565  155.0397 C.2     1  UNL1        0.1508
     30 S         139.0651  147.7710  155.4587 S.3     1  UNL1       -0.1081
     31 H         138.5553  148.3960  154.3636 H       1  UNL1        0.1098
@<TRIPOS>BOND
     1    10    11    1
     2    11    12   ar
     3    12    13   ar
     4    13    14   ar
     5    14     1    1
     6     1     2   ar
     7     2     3   ar
     8     3    17    1
     9    17    18    1
    10    18    19    1
    11    19    20    1
    12    20    23    1
    13    23    24    1
    14    24    25    1
    15    25    26    1
    16    26    27    1
    17    27    28    1
    18    28    29    2
    19    29    30    1
    20    20    21    1
    21    21    22    1
    22     3     4   ar
    23     4     5   ar
    24     5     6   ar
    25     6     7   ar
    26     7     8   ar
    27     8     9   ar
    28    14    15   ar
    29    15    16   ar
    30    16    11   ar
    31     9     1   ar
    32    22    17    1
    33     9     4   ar
    34    29    25    1
    35    30    31    1
@<TRIPOS>MOLECULE
*****
 31 35 0 0 0
SMALL
GASTEIGER

@<TRIPOS>ATOM
      1 N         141.7441  140.9958  161.9143 N.ar    1  UNL1       -0.3052
      2 C         142.0948  140.5160  160.5371 C.ar    1  UNL1        0.0757
      3 C         141.2809  139.2886  160.2527 C.ar    1  UNL1       -0.0035
      4 C         140.4271  139.0098  161.4541 C.ar    1  UNL1        0.0136
      5 C         139.4261  137.9314  161.7456 C.ar    1  UNL1        0.0012
      6 C         138.7113  137.9083  163.0641 C.ar    1  UNL1        0.0001
      7 C         138.9976  138.9634  164.0911 C.ar    1  UNL1        0.0015
      8 C         139.9986  140.0418  163.7996 C.ar    1  UNL1        0.0175
      9 C         140.7134  140.0649  162.4811 C.ar    1  UNL1        0.0637
     10 F         144.0575  145.7961  164.6723 F       1  UNL1       -0.2042
     11 C         143.4791  144.5960  163.9828 C.ar    1  UNL1        0.1402
     12 C         144.3476  143.4089  163.6888 C.ar    1  UNL1        0.0311
     13 C         143.7692  142.2089  162.9993 C.ar    1  UNL1        0.0198
     14 C         142.3224  142.1959  162.6038 C.ar    1  UNL1        0.0642
     15 C         141.4539  143.3831  162.8978 C.ar    1  UNL1        0.0198
     16 C         142.0323  144.5831  163.5873 C.ar    1  UNL1        0.0311
     17 C         141.3147  138.4816  158.9887 C.3     1  UNL1        0.0266
     18 C         140.0777  138.3479  158.1508 C.3     1  UNL1        0.0218
     19 C         140.1115  137.5409  156.8868 C.3     1  UNL1        0.0725
     20 N         141.3824  136.8676  156.4607 N.3     1  UNL1       -0.2712
     21 C         142.6193  137.0012  157.2986 C.3     1  UNL1        0.0725
     22 C         142.5855  137.8082  158.5626 C.3     1  UNL1        0.0218
     23 C         141.4162  136.0605  155.1968 C.3     1  UNL1        0.0938
     24 C         142.6069  135.2028  154.8864 C.3     1  UNL1        0.1100
     25 N         142.6364  133.7708  155.3321 N.pl3   1  UNL1       -0.2854
     26 C         142.9227  133.2860  156.7225 C.3     1  UNL1        0.1190
     27 C         142.8480  131.7878  156.7155 C.3     1  UNL1        0.1488
     28 N         142.5157  131.3468  155.3208 N.2     1  UNL1       -0.2493
     29 C         142.3849  132.5724  154.4659 C.2     1  UNL1        0.1508
     30 S         142.0597  132.5953  153.0018 S.3     1  UNL1       -0.1081
     31 H         141.8976  131.3217  152.5534 H       1  UNL1        0.1098
@<TRIPOS>BOND
     1    10    11    1
     2    11    12   ar
     3    12    13   ar
     4    13    14   ar
     5    14     1    1
     6     1     2   ar
     7     2     3   ar
     8     3    17    1
     9    17    18    1
    10    18    19    1
    11    19    20    1
    12    20    23    1
    13    23    24    1
    14    24    25    1
    15    25    26    1
    16    26    27    1
    17    27    28    1
    18    28    29    2
    19    29    30    1
    20    20    21    1
    21    21    22    1
    22     3     4   ar
    23     4     5   ar
    24     5     6   ar
    25     6     7   ar
    26     7     8   ar
    27     8     9   ar
    28    14    15   ar
    29    15    16   ar
    30    16    11   ar
    31     9     1   ar
    32    22    17    1
    33     9     4   ar
    34    29    25    1
    35    30    31    1
@<TRIPOS>MOLECULE
*****
 31 35 0 0 0
SMALL
GASTEIGER

@<TRIPOS>ATOM
      1 N         141.4414  142.2635  162.6840 N.ar    1  UNL1       -0.3052
      2 C         141.7538  142.4149  161.2248 C.ar    1  UNL1        0.0757
      3 C         142.9722  141.5932  160.9240 C.ar    1  UNL1       -0.0035
      4 C         143.4127  140.9340  162.1973 C.ar    1  UNL1        0.0136
      5 C         144.5531  140.0101  162.5068 C.ar    1  UNL1        0.0012
      6 C         144.7474  139.5004  163.9041 C.ar    1  UNL1        0.0001
      7 C         143.8013  139.9147  164.9919 C.ar    1  UNL1        0.0015
      8 C         142.6609  140.8386  164.6824 C.ar    1  UNL1        0.0175
      9 C         142.4666  141.3483  163.2851 C.ar    1  UNL1        0.0637
     10 F         136.8899  144.8627  165.6044 F       1  UNL1       -0.2042
     11 C         138.0278  144.2129  164.8743 C.ar    1  UNL1        0.1402
     12 C         137.8234  142.8950  164.1878 C.ar    1  UNL1        0.0311
     13 C         138.9613  142.2453  163.4577 C.ar    1  UNL1        0.0198
     14 C         140.3035  142.9133  163.4141 C.ar    1  UNL1        0.0642
     15 C         140.5079  144.2313  164.1007 C.ar    1  UNL1        0.0198
     16 C         139.3701  144.8811  164.8308 C.ar    1  UNL1        0.0311
     17 C         143.6338  141.4549  159.5849 C.3     1  UNL1        0.0266
     18 C         143.3596  140.2506  158.7336 C.3     1  UNL1        0.0218
     19 C         144.0213  140.1124  157.3945 C.3     1  UNL1        0.0725
     20 N         144.9571  141.1783  156.9067 N.3     1  UNL1       -0.2712
     21 C         145.2312  142.3825  157.7580 C.3     1  UNL1        0.0725
     22 C         144.5696  142.5208  159.0971 C.3     1  UNL1        0.0218
     23 C         145.6188  141.0401  155.5676 C.3     1  UNL1        0.0938
     24 C         147.0735  141.3708  155.4123 C.3     1  UNL1        0.1100
     25 N         147.4924  142.5250  154.5507 N.pl3   1  UNL1       -0.2854
     26 C         146.6508  143.7171  154.2036 C.3     1  UNL1        0.1190
     27 C         147.4646  144.6187  153.3233 C.3     1  UNL1        0.1488
     28 N         148.8093  143.9837  153.1263 N.2     1  UNL1       -0.2493
     29 C         148.8265  142.6897  153.8849 C.2     1  UNL1        0.1508
     30 S         149.9758  141.7292  153.9638 S.3     1  UNL1       -0.1081
     31 H         151.0189  142.2096  153.2351 H       1  UNL1        0.1098
@<TRIPOS>BOND
     1    10    11    1
     2    11    12   ar
     3    12    13   ar
     4    13    14   ar
     5    14     1    1
     6     1     2   ar
     7     2     3   ar
     8     3    17    1
     9    17    18    1
    10    18    19    1
    11    19    20    1
    12    20    23    1
    13    23    24    1
    14    24    25    1
    15    25    26    1
    16    26    27    1
    17    27    28    1
    18    28    29    2
    19    29    30    1
    20    20    21    1
    21    21    22    1
    22     3     4   ar
    23     4     5   ar
    24     5     6   ar
    25     6     7   ar
    26     7     8   ar
    27     8     9   ar
    28    14    15   ar
    29    15    16   ar
    30    16    11   ar
    31     9     1   ar
    32    22    17    1
    33     9     4   ar
    34    29    25    1
    35    30    31    1
