@<TRIPOS>MOLECULE
*****
 35 39 0 0 0
SMALL
GASTEIGER

@<TRIPOS>ATOM
      1 C         142.2184  139.8481  167.7000 C.2     1  UNL1        0.1285
      2 N         143.1989  138.7862  168.1015 N.2     1  UNL1       -0.0375
      3 N         143.7700  138.1861  166.8511 N.2     1  UNL1        0.0826
      4 C         143.1426  138.8770  165.6769 C.2     1  UNL1        0.3991
      5 N         143.3206  138.7035  164.1975 N.2     1  UNL1        0.0275
      6 C         142.5396  139.5572  163.2430 C.2     1  UNL1        0.4243
      7 N         141.5806  140.5844  163.7677 N.am    1  UNL1       -0.1358
      8 C         140.7996  141.4382  162.8130 C.3     1  UNL1        0.2167
      9 C         141.4027  140.7579  165.2469 C.2     1  UNL1        0.3055
     10 O         140.4437  141.7851  165.7716 O.2     1  UNL1       -0.2554
     11 C         142.1837  139.9042  166.2016 C.3     1  UNL1        0.2504
     12 N         142.7175  139.3838  161.7637 N.pl3   1  UNL1       -0.1900
     13 C         143.4469  140.4258  160.9687 C.3     1  UNL1        0.1682
     14 C         143.6248  140.2523  159.4895 C.3     1  UNL1        0.0444
     15 C         143.0734  139.0368  158.8052 C.3     1  UNL1        0.0490
     16 C         142.3440  137.9947  159.6001 C.3     1  UNL1        0.0444
     17 C         142.1661  138.1682  161.0794 C.3     1  UNL1        0.1682
     18 C         142.5797  137.8802  157.9874 C.3     1  UNL1        0.1435
     19 O         142.9774  138.1180  156.5607 O.3     1  UNL1       -0.3548
     20 C         143.7169  139.4216  156.4968 C.3     1  UNL1        0.1294
     21 C         144.2955  140.0474  155.2625 C.3     1  UNL1        0.0335
     22 C         143.7762  139.9893  157.8839 C.3     1  UNL1        0.0808
     23 N         144.4245  141.2826  158.2803 N.3     1  UNL1       -0.3202
     24 H         144.3165  141.4233  159.2847 H       1  UNL1        0.1189
     25 H         143.9812  142.0527  157.7795 H       1  UNL1        0.1189
     26 C         143.3668  142.4136  168.7488 C.3     1  UNL1        0.0522
     27 C         141.9882  141.9863  169.1577 C.ar    1  UNL1        0.0620
     28 N         141.1839  142.8419  170.0910 N.ar    1  UNL1       -0.2354
     29 C         139.8054  142.4148  170.4999 C.ar    1  UNL1        0.1250
     30 N         139.0010  143.2704  171.4332 N.pl3   1  UNL1       -0.3426
     31 C         139.2312  141.1321  169.9755 C.ar    1  UNL1        0.0339
     32 C         140.0355  140.2765  169.0422 C.ar    1  UNL1        0.0053
     33 C         141.4140  140.7036  168.6333 C.ar    1  UNL1        0.0321
     34 H         139.3779  144.1123  171.7773 H       1  UNL1        0.1437
     35 H         138.0963  142.9901  171.7016 H       1  UNL1        0.1437
@<TRIPOS>BOND
     1    26    27    1
     2    27    28   ar
     3    28    29   ar
     4    29    30    1
     5    29    31   ar
     6    31    32   ar
     7    32    33   ar
     8    33     1    1
     9     1     2    2
    10     2     3    1
    11     3     4    2
    12     4     5    1
    13     5     6    2
    14     6    12    1
    15    12    13    1
    16    13    14    1
    17    14    15    1
    18    15    16    1
    19    16    17    1
    20    15    18    1
    21    18    19    1
    22    19    20    1
    23    20    21    1
    24    20    22    1
    25    22    23    1
    26     6     7    1
    27     7     8    1
    28     7     9   am
    29     9    10    2
    30     9    11    1
    31    33    27   ar
    32    11     1    1
    33    11     4    1
    34    17    12    1
    35    22    15    1
    36    30    34    1
    37    30    35    1
    38    23    24    1
    39    23    25    1
@<TRIPOS>MOLECULE
*****
 35 39 0 0 0
SMALL
GASTEIGER

@<TRIPOS>ATOM
      1 C         139.9381  140.5217  167.5923 C.2     1  UNL1        0.1285
      2 N         138.9147  139.5083  168.0118 N.2     1  UNL1       -0.0375
      3 N         138.3029  138.9268  166.7718 N.2     1  UNL1        0.0826
      4 C         138.9481  139.5807  165.5861 C.2     1  UNL1        0.3991
      5 N         138.7460  139.4059  164.1100 N.2     1  UNL1        0.0275
      6 C         139.5545  140.2168  163.1412 C.2     1  UNL1        0.4243
      7 N         140.5650  141.2025  163.6482 N.am    1  UNL1       -0.1358
      8 C         141.3735  142.0135  162.6793 C.3     1  UNL1        0.2167
      9 C         140.7672  141.3773  165.1242 C.2     1  UNL1        0.3055
     10 O         141.7778  142.3630  165.6313 O.2     1  UNL1       -0.2554
     11 C         139.9587  140.5664  166.0932 C.3     1  UNL1        0.2504
     12 N         139.3523  140.0421  161.6651 N.pl3   1  UNL1       -0.1900
     13 C         140.2696  139.1494  160.8830 C.3     1  UNL1        0.1682
     14 C         140.0675  138.9747  159.4070 C.3     1  UNL1        0.0444
     15 C         138.9481  139.6927  158.7131 C.3     1  UNL1        0.0490
     16 C         138.0308  140.5854  159.4952 C.3     1  UNL1        0.0444
     17 C         138.2330  140.7601  160.9712 C.3     1  UNL1        0.1682
     18 C         137.8780  140.3423  157.8867 C.3     1  UNL1        0.1435
     19 O         138.0491  139.8888  156.4672 O.3     1  UNL1       -0.3548
     20 C         139.2250  138.9588  156.4162 C.3     1  UNL1        0.1294
     21 C         139.7526  138.2709  155.1922 C.3     1  UNL1        0.0335
     22 C         139.7806  138.8376  157.8043 C.3     1  UNL1        0.0808
     23 N         140.9613  138.0072  158.2120 N.3     1  UNL1       -0.3202
     24 H         141.1192  138.1098  159.2144 H       1  UNL1        0.1189
     25 H         141.7886  138.3198  157.7037 H       1  UNL1        0.1189
     26 C         142.6000  139.4806  168.5038 C.3     1  UNL1        0.0522
     27 C         142.1219  140.8251  168.9666 C.ar    1  UNL1        0.0620
     28 N         142.9749  141.6489  169.8851 N.ar    1  UNL1       -0.2354
     29 C         142.4970  142.9933  170.3479 C.ar    1  UNL1        0.1250
     30 N         143.3500  143.8172  171.2664 N.pl3   1  UNL1       -0.3426
     31 C         141.1661  143.5138  169.8922 C.ar    1  UNL1        0.0339
     32 C         140.3131  142.6900  168.9737 C.ar    1  UNL1        0.0053
     33 C         140.7910  141.3456  168.5108 C.ar    1  UNL1        0.0321
     34 H         144.2235  143.4755  171.5655 H       1  UNL1        0.1437
     35 H         143.0363  144.6995  171.5702 H       1  UNL1        0.1437
@<TRIPOS>BOND
     1    26    27    1
     2    27    28   ar
     3    28    29   ar
     4    29    30    1
     5    29    31   ar
     6    31    32   ar
     7    32    33   ar
     8    33     1    1
     9     1     2    2
    10     2     3    1
    11     3     4    2
    12     4     5    1
    13     5     6    2
    14     6    12    1
    15    12    13    1
    16    13    14    1
    17    14    15    1
    18    15    16    1
    19    16    17    1
    20    15    18    1
    21    18    19    1
    22    19    20    1
    23    20    21    1
    24    20    22    1
    25    22    23    1
    26     6     7    1
    27     7     8    1
    28     7     9   am
    29     9    10    2
    30     9    11    1
    31    33    27   ar
    32    11     1    1
    33    11     4    1
    34    17    12    1
    35    22    15    1
    36    30    34    1
    37    30    35    1
    38    23    24    1
    39    23    25    1
@<TRIPOS>MOLECULE
*****
 35 39 0 0 0
SMALL
GASTEIGER

@<TRIPOS>ATOM
      1 C         142.6014  142.5204  166.6190 C.2     1  UNL1        0.1285
      2 N         143.9971  143.0265  166.8331 N.2     1  UNL1       -0.0375
      3 N         144.4726  143.6331  165.5463 N.2     1  UNL1        0.0826
      4 C         143.3709  143.5019  164.5370 C.2     1  UNL1        0.3991
      5 N         143.2712  143.9198  163.0998 N.2     1  UNL1        0.0275
      6 C         142.0151  143.6500  162.3257 C.2     1  UNL1        0.4243
      7 N         140.8586  142.9623  162.9887 N.am    1  UNL1       -0.1358
      8 C         139.6024  142.6925  162.2145 C.3     1  UNL1        0.2167
      9 C         140.9582  142.5444  164.4258 C.2     1  UNL1        0.3055
     10 O         139.8017  141.8567  165.0888 O.2     1  UNL1       -0.2554
     11 C         142.2144  142.8142  165.2000 C.3     1  UNL1        0.2504
     12 N         141.9154  144.0679  160.8885 N.pl3   1  UNL1       -0.1900
     13 C         142.7924  143.4221  159.8571 C.3     1  UNL1        0.1682
     14 C         142.6926  143.8400  158.4200 C.3     1  UNL1        0.0444
     15 C         141.7160  144.9038  158.0143 C.3     1  UNL1        0.0490
     16 C         140.8390  145.5495  159.0457 C.3     1  UNL1        0.0444
     17 C         140.9387  145.1316  160.4828 C.3     1  UNL1        0.1682
     18 C         140.7915  145.9479  157.4618 C.3     1  UNL1        0.1435
     19 O         141.0274  146.0404  155.9832 O.3     1  UNL1       -0.3548
     20 C         142.0977  145.0534  155.6220 C.3     1  UNL1        0.1294
     21 C         142.6461  144.8113  154.2471 C.3     1  UNL1        0.0335
     22 C         142.5232  144.3509  156.8772 C.3     1  UNL1        0.0808
     23 N         143.5718  143.2831  156.9778 N.3     1  UNL1       -0.3202
     24 H         143.6582  142.9818  157.9484 H       1  UNL1        0.1189
     25 H         144.4660  143.6533  156.6558 H       1  UNL1        0.1189
     26 C         142.7350  139.5414  166.9482 C.3     1  UNL1        0.0522
     27 C         141.8103  140.3504  167.8087 C.ar    1  UNL1        0.0620
     28 N         140.9524  139.6699  168.8338 N.ar    1  UNL1       -0.2354
     29 C         140.0276  140.4787  169.6944 C.ar    1  UNL1        0.1250
     30 N         139.1697  139.7982  170.7195 N.pl3   1  UNL1       -0.3426
     31 C         139.9608  141.9682  169.5298 C.ar    1  UNL1        0.0339
     32 C         140.8187  142.6487  168.5047 C.ar    1  UNL1        0.0053
     33 C         141.7435  141.8399  167.6442 C.ar    1  UNL1        0.0321
     34 H         139.2136  138.8206  170.8275 H       1  UNL1        0.1437
     35 H         138.5628  140.3291  171.2843 H       1  UNL1        0.1437
@<TRIPOS>BOND
     1    26    27    1
     2    27    28   ar
     3    28    29   ar
     4    29    30    1
     5    29    31   ar
     6    31    32   ar
     7    32    33   ar
     8    33     1    1
     9     1     2    2
    10     2     3    1
    11     3     4    2
    12     4     5    1
    13     5     6    2
    14     6    12    1
    15    12    13    1
    16    13    14    1
    17    14    15    1
    18    15    16    1
    19    16    17    1
    20    15    18    1
    21    18    19    1
    22    19    20    1
    23    20    21    1
    24    20    22    1
    25    22    23    1
    26     6     7    1
    27     7     8    1
    28     7     9   am
    29     9    10    2
    30     9    11    1
    31    33    27   ar
    32    11     1    1
    33    11     4    1
    34    17    12    1
    35    22    15    1
    36    30    34    1
    37    30    35    1
    38    23    24    1
    39    23    25    1
@<TRIPOS>MOLECULE
*****
 35 39 0 0 0
SMALL
GASTEIGER

@<TRIPOS>ATOM
      1 C         139.9495  142.2195  165.5412 C.2     1  UNL1        0.1285
      2 N         139.0495  143.3379  165.1063 N.2     1  UNL1       -0.0375
      3 N         139.3583  143.6504  163.6721 N.2     1  UNL1        0.0826
      4 C         140.4491  142.7251  163.2206 C.2     1  UNL1        0.3991
      5 N         141.1570  142.5736  161.9068 N.2     1  UNL1        0.0275
      6 C         142.2301  141.5377  161.7482 C.2     1  UNL1        0.4243
      7 N         142.5955  140.6533  162.9034 N.am    1  UNL1       -0.1358
      8 C         143.6687  139.6174  162.7447 C.3     1  UNL1        0.2167
      9 C         141.8877  140.8048  164.2171 C.2     1  UNL1        0.3055
     10 O         142.2531  139.9205  165.3723 O.2     1  UNL1       -0.2554
     11 C         140.8145  141.8408  164.3758 C.3     1  UNL1        0.2504
     12 N         142.9380  141.3861  160.4344 N.pl3   1  UNL1       -0.1900
     13 C         144.0742  142.3008  160.0847 C.3     1  UNL1        0.1682
     14 C         144.7820  142.1492  158.7710 C.3     1  UNL1        0.0444
     15 C         144.3536  141.0829  157.8069 C.3     1  UNL1        0.0490
     16 C         143.2173  140.1682  158.1565 C.3     1  UNL1        0.0444
     17 C         142.5096  140.3198  159.4703 C.3     1  UNL1        0.1682
     18 C         144.0388  140.0685  156.7477 C.3     1  UNL1        0.1435
     19 O         144.9911  140.2778  155.6077 O.3     1  UNL1       -0.3548
     20 C         145.8945  141.4215  155.9625 C.3     1  UNL1        0.1294
     21 C         146.9981  141.9711  155.1082 C.3     1  UNL1        0.0335
     22 C         145.5005  141.9191  157.3216 C.3     1  UNL1        0.0808
     23 N         146.1409  143.0536  158.0650 N.3     1  UNL1       -0.3202
     24 H         145.6755  143.1766  158.9642 H       1  UNL1        0.1189
     25 H         146.0551  143.9101  157.5178 H       1  UNL1        0.1189
     26 C         138.5320  139.6198  166.0233 C.3     1  UNL1        0.0522
     27 C         139.2704  140.2904  167.1436 C.ar    1  UNL1        0.0620
     28 N         139.3001  139.6612  168.5049 N.ar    1  UNL1       -0.2354
     29 C         140.0385  140.3318  169.6252 C.ar    1  UNL1        0.1250
     30 N         140.0681  139.7025  170.9865 N.pl3   1  UNL1       -0.3426
     31 C         140.7472  141.6316  169.3842 C.ar    1  UNL1        0.0339
     32 C         140.7176  142.2608  168.0229 C.ar    1  UNL1        0.0053
     33 C         139.9792  141.5903  166.9026 C.ar    1  UNL1        0.0321
     34 H         139.6029  138.8494  171.1447 H       1  UNL1        0.1437
     35 H         140.5527  140.1426  171.7218 H       1  UNL1        0.1437
@<TRIPOS>BOND
     1    26    27    1
     2    27    28   ar
     3    28    29   ar
     4    29    30    1
     5    29    31   ar
     6    31    32   ar
     7    32    33   ar
     8    33     1    1
     9     1     2    2
    10     2     3    1
    11     3     4    2
    12     4     5    1
    13     5     6    2
    14     6    12    1
    15    12    13    1
    16    13    14    1
    17    14    15    1
    18    15    16    1
    19    16    17    1
    20    15    18    1
    21    18    19    1
    22    19    20    1
    23    20    21    1
    24    20    22    1
    25    22    23    1
    26     6     7    1
    27     7     8    1
    28     7     9   am
    29     9    10    2
    30     9    11    1
    31    33    27   ar
    32    11     1    1
    33    11     4    1
    34    17    12    1
    35    22    15    1
    36    30    34    1
    37    30    35    1
    38    23    24    1
    39    23    25    1
@<TRIPOS>MOLECULE
*****
 35 39 0 0 0
SMALL
GASTEIGER

@<TRIPOS>ATOM
      1 C         142.6171  141.0969  166.0381 C.2     1  UNL1        0.1285
      2 N         143.6564  142.1283  165.7122 N.2     1  UNL1       -0.0375
      3 N         143.9301  142.0609  164.2389 N.2     1  UNL1        0.0826
      4 C         143.0600  140.9880  163.6544 C.2     1  UNL1        0.3991
      5 N         142.9018  140.4765  162.2532 N.2     1  UNL1        0.0275
      6 C         141.9321  139.3692  161.9640 C.2     1  UNL1        0.4243
      7 N         141.1207  138.7734  163.0760 N.am    1  UNL1       -0.1358
      8 C         140.1510  137.6660  162.7868 C.3     1  UNL1        0.2167
      9 C         141.2789  139.2849  164.4772 C.2     1  UNL1        0.3055
     10 O         140.4675  138.6891  165.5892 O.2     1  UNL1       -0.2554
     11 C         142.2486  140.3922  164.7664 C.3     1  UNL1        0.2504
     12 N         141.7738  138.8576  160.5628 N.pl3   1  UNL1       -0.1900
     13 C         140.5398  139.1906  159.7777 C.3     1  UNL1        0.1682
     14 C         140.3816  138.6790  158.3766 C.3     1  UNL1        0.0444
     15 C         141.4574  137.8346  157.7605 C.3     1  UNL1        0.0490
     16 C         142.6914  137.5016  158.5456 C.3     1  UNL1        0.0444
     17 C         142.8496  138.0132  159.9467 C.3     1  UNL1        0.1682
     18 C         142.4433  136.9839  157.0158 C.3     1  UNL1        0.1435
     19 O         141.8807  136.7075  155.6530 O.3     1  UNL1       -0.3548
     20 C         140.5471  137.3873  155.5555 C.3     1  UNL1        0.1294
     21 C         139.6353  137.3730  154.3646 C.3     1  UNL1        0.0335
     22 C         140.2855  138.0838  156.8579 C.3     1  UNL1        0.0808
     23 N         139.0662  138.8884  157.1981 N.3     1  UNL1       -0.3202
     24 H         139.1505  139.2480  158.1489 H       1  UNL1        0.1189
     25 H         138.2384  138.2963  157.1307 H       1  UNL1        0.1189
     26 C         140.3639  142.7748  167.0907 C.3     1  UNL1        0.0522
     27 C         140.9201  141.6581  167.9236 C.ar    1  UNL1        0.0620
     28 N         140.3496  141.3804  169.2828 N.ar    1  UNL1       -0.2354
     29 C         140.9056  140.2637  170.1158 C.ar    1  UNL1        0.1250
     30 N         140.3351  139.9860  171.4750 N.pl3   1  UNL1       -0.3426
     31 C         142.0322  139.4248  169.5895 C.ar    1  UNL1        0.0339
     32 C         142.6028  139.7025  168.2303 C.ar    1  UNL1        0.0053
     33 C         142.0467  140.8191  167.3974 C.ar    1  UNL1        0.0321
     34 H         139.5957  140.5366  171.8203 H       1  UNL1        0.1437
     35 H         140.7001  139.2531  172.0216 H       1  UNL1        0.1437
@<TRIPOS>BOND
     1    26    27    1
     2    27    28   ar
     3    28    29   ar
     4    29    30    1
     5    29    31   ar
     6    31    32   ar
     7    32    33   ar
     8    33     1    1
     9     1     2    2
    10     2     3    1
    11     3     4    2
    12     4     5    1
    13     5     6    2
    14     6    12    1
    15    12    13    1
    16    13    14    1
    17    14    15    1
    18    15    16    1
    19    16    17    1
    20    15    18    1
    21    18    19    1
    22    19    20    1
    23    20    21    1
    24    20    22    1
    25    22    23    1
    26     6     7    1
    27     7     8    1
    28     7     9   am
    29     9    10    2
    30     9    11    1
    31    33    27   ar
    32    11     1    1
    33    11     4    1
    34    17    12    1
    35    22    15    1
    36    30    34    1
    37    30    35    1
    38    23    24    1
    39    23    25    1
@<TRIPOS>MOLECULE
*****
 35 39 0 0 0
SMALL
GASTEIGER

@<TRIPOS>ATOM
      1 C         141.5343  140.7454  165.8892 C.2     1  UNL1        0.1285
      2 N         142.2570  139.5087  165.4441 N.2     1  UNL1       -0.0375
      3 N         142.3517  139.5406  163.9474 N.2     1  UNL1        0.0826
      4 C         141.6876  140.7970  163.4677 C.2     1  UNL1        0.3991
      5 N         141.4776  141.3593  162.0929 N.2     1  UNL1        0.0275
      6 C         140.7623  142.6662  161.9184 C.2     1  UNL1        0.4243
      7 N         140.2571  143.4108  163.1185 N.am    1  UNL1       -0.1358
      8 C         139.5418  144.7177  162.9439 C.3     1  UNL1        0.2167
      9 C         140.4671  142.8485  164.4932 C.2     1  UNL1        0.3055
     10 O         139.9619  143.5931  165.6933 O.2     1  UNL1       -0.2554
     11 C         141.1824  141.5416  164.6678 C.3     1  UNL1        0.2504
     12 N         140.5523  143.2285  160.5437 N.pl3   1  UNL1       -0.1900
     13 C         141.4593  144.3058  160.0274 C.3     1  UNL1        0.1682
     14 C         141.2492  144.8681  158.6528 C.3     1  UNL1        0.0444
     15 C         140.1322  144.3530  157.7944 C.3     1  UNL1        0.0490
     16 C         139.2252  143.2756  158.3107 C.3     1  UNL1        0.0444
     17 C         139.4352  142.7133  159.6853 C.3     1  UNL1        0.1682
     18 C         139.0633  143.9396  156.8266 C.3     1  UNL1        0.1435
     19 O         139.2246  144.7585  155.5802 O.3     1  UNL1       -0.3548
     20 C         140.3933  145.6780  155.7777 C.3     1  UNL1        0.1294
     21 C         140.9102  146.6733  154.7817 C.3     1  UNL1        0.0335
     22 C         140.9541  145.4274  157.1461 C.3     1  UNL1        0.0808
     23 N         142.1304  146.1280  157.7588 N.3     1  UNL1       -0.3202
     24 H         142.2936  145.7618  158.6967 H       1  UNL1        0.1189
     25 H         141.9398  147.1286  157.8129 H       1  UNL1        0.1189
     26 C         143.3981  142.5303  167.4191 C.3     1  UNL1        0.0522
     27 C         142.1508  142.0125  168.0720 C.ar    1  UNL1        0.0620
     28 N         141.8355  142.3872  169.4898 N.ar    1  UNL1       -0.2354
     29 C         140.5882  141.8694  170.1427 C.ar    1  UNL1        0.1250
     30 N         140.2729  142.2441  171.5605 N.pl3   1  UNL1       -0.3426
     31 C         139.6563  140.9770  169.3778 C.ar    1  UNL1        0.0339
     32 C         139.9716  140.6023  167.9600 C.ar    1  UNL1        0.0053
     33 C         141.2189  141.1200  167.3071 C.ar    1  UNL1        0.0321
     34 H         140.8846  142.8299  172.0626 H       1  UNL1        0.1437
     35 H         139.4543  141.9043  171.9891 H       1  UNL1        0.1437
@<TRIPOS>BOND
     1    26    27    1
     2    27    28   ar
     3    28    29   ar
     4    29    30    1
     5    29    31   ar
     6    31    32   ar
     7    32    33   ar
     8    33     1    1
     9     1     2    2
    10     2     3    1
    11     3     4    2
    12     4     5    1
    13     5     6    2
    14     6    12    1
    15    12    13    1
    16    13    14    1
    17    14    15    1
    18    15    16    1
    19    16    17    1
    20    15    18    1
    21    18    19    1
    22    19    20    1
    23    20    21    1
    24    20    22    1
    25    22    23    1
    26     6     7    1
    27     7     8    1
    28     7     9   am
    29     9    10    2
    30     9    11    1
    31    33    27   ar
    32    11     1    1
    33    11     4    1
    34    17    12    1
    35    22    15    1
    36    30    34    1
    37    30    35    1
    38    23    24    1
    39    23    25    1
@<TRIPOS>MOLECULE
*****
 35 39 0 0 0
SMALL
GASTEIGER

@<TRIPOS>ATOM
      1 C         140.8065  139.3404  165.2742 C.2     1  UNL1        0.1285
      2 N         141.4045  138.0862  164.7090 N.2     1  UNL1       -0.0375
      3 N         141.4028  138.2050  163.2137 N.2     1  UNL1        0.0826
      4 C         140.8038  139.5324  162.8548 C.2     1  UNL1        0.3991
      5 N         140.5463  140.1930  161.5329 N.2     1  UNL1        0.0275
      6 C         139.9202  141.5552  161.4845 C.2     1  UNL1        0.4243
      7 N         139.5517  142.2570  162.7580 N.am    1  UNL1       -0.1358
      8 C         138.9257  143.6193  162.7096 C.3     1  UNL1        0.2167
      9 C         139.8092  141.5965  164.0799 C.2     1  UNL1        0.3055
     10 O         139.4407  142.2982  165.3534 O.2     1  UNL1       -0.2554
     11 C         140.4353  140.2342  164.1283 C.3     1  UNL1        0.2504
     12 N         139.6627  142.2158  160.1626 N.pl3   1  UNL1       -0.1900
     13 C         138.4424  141.8544  159.3687 C.3     1  UNL1        0.1682
     14 C         138.1850  142.5150  158.0469 C.3     1  UNL1        0.0444
     15 C         139.1477  143.5369  157.5189 C.3     1  UNL1        0.0490
     16 C         140.3680  143.8983  158.3128 C.3     1  UNL1        0.0444
     17 C         140.6255  143.2377  159.6347 C.3     1  UNL1        0.1682
     18 C         140.0161  144.5713  156.8662 C.3     1  UNL1        0.1435
     19 O         139.3817  144.9528  155.5615 O.3     1  UNL1       -0.3548
     20 C         138.1212  144.1541  155.4079 C.3     1  UNL1        0.1294
     21 C         137.1721  144.2191  154.2483 C.3     1  UNL1        0.0335
     22 C         137.9767  143.2791  156.6176 C.3     1  UNL1        0.0808
     23 N         136.8576  142.3154  156.8801 N.3     1  UNL1       -0.3202
     24 H         137.0107  141.8525  157.7760 H       1  UNL1        0.1189
     25 H         136.8289  141.6172  156.1371 H       1  UNL1        0.1189
     26 C         138.0998  139.0220  166.5283 C.3     1  UNL1        0.0522
     27 C         139.2604  139.4876  167.3569 C.ar    1  UNL1        0.0620
     28 N         139.0675  139.7941  168.8126 N.ar    1  UNL1       -0.2354
     29 C         140.2279  140.2597  169.6412 C.ar    1  UNL1        0.1250
     30 N         140.0349  140.5661  171.0968 N.pl3   1  UNL1       -0.3426
     31 C         141.5812  140.4189  169.0142 C.ar    1  UNL1        0.0339
     32 C         141.7741  140.1125  167.5585 C.ar    1  UNL1        0.0053
     33 C         140.6137  139.6468  166.7299 C.ar    1  UNL1        0.0321
     34 H         139.1467  140.4616  171.5084 H       1  UNL1        0.1437
     35 H         140.7966  140.8717  171.6407 H       1  UNL1        0.1437
@<TRIPOS>BOND
     1    26    27    1
     2    27    28   ar
     3    28    29   ar
     4    29    30    1
     5    29    31   ar
     6    31    32   ar
     7    32    33   ar
     8    33     1    1
     9     1     2    2
    10     2     3    1
    11     3     4    2
    12     4     5    1
    13     5     6    2
    14     6    12    1
    15    12    13    1
    16    13    14    1
    17    14    15    1
    18    15    16    1
    19    16    17    1
    20    15    18    1
    21    18    19    1
    22    19    20    1
    23    20    21    1
    24    20    22    1
    25    22    23    1
    26     6     7    1
    27     7     8    1
    28     7     9   am
    29     9    10    2
    30     9    11    1
    31    33    27   ar
    32    11     1    1
    33    11     4    1
    34    17    12    1
    35    22    15    1
    36    30    34    1
    37    30    35    1
    38    23    24    1
    39    23    25    1
@<TRIPOS>MOLECULE
*****
 35 39 0 0 0
SMALL
GASTEIGER

@<TRIPOS>ATOM
      1 C         139.3679  141.4995  163.6133 C.2     1  UNL1        0.1285
      2 N         138.2491  142.2033  162.9042 N.2     1  UNL1       -0.0375
      3 N         138.6859  142.4637  161.4930 N.2     1  UNL1        0.0826
      4 C         140.0746  141.9209  161.3301 C.2     1  UNL1        0.3991
      5 N         141.0100  141.8923  160.1577 N.2     1  UNL1        0.0275
      6 C         142.3667  141.2677  160.2958 C.2     1  UNL1        0.4243
      7 N         142.7882  140.6718  161.6062 N.am    1  UNL1       -0.1358
      8 C         144.1451  140.0473  161.7442 C.3     1  UNL1        0.2167
      9 C         141.8530  140.7005  162.7785 C.2     1  UNL1        0.3055
     10 O         142.2745  140.1046  164.0890 O.2     1  UNL1       -0.2554
     11 C         140.4961  141.3250  162.6405 C.3     1  UNL1        0.2504
     12 N         143.3021  141.2391  159.1234 N.pl3   1  UNL1       -0.1900
     13 C         144.4271  142.2274  159.0371 C.3     1  UNL1        0.1682
     14 C         145.3623  142.1987  157.8648 C.3     1  UNL1        0.0444
     15 C         145.1726  141.1817  156.7787 C.3     1  UNL1        0.0490
     16 C         144.0476  140.1933  156.8649 C.3     1  UNL1        0.0444
     17 C         143.1123  140.2220  158.0373 C.3     1  UNL1        0.1682
     18 C         145.1082  140.2281  155.6226 C.3     1  UNL1        0.1435
     19 O         146.2323  140.5586  154.6859 O.3     1  UNL1       -0.3548
     20 C         146.9914  141.7165  155.2632 C.3     1  UNL1        0.1294
     21 C         148.1942  142.3738  154.6541 C.3     1  UNL1        0.0335
     22 C         146.3365  142.1016  156.5566 C.3     1  UNL1        0.0808
     23 N         146.7693  143.2115  157.4679 N.3     1  UNL1       -0.3202
     24 H         146.1468  143.2512  158.2749 H       1  UNL1        0.1189
     25 H         146.7315  144.0983  156.9653 H       1  UNL1        0.1189
     26 C         140.7070  143.1664  165.7178 C.3     1  UNL1        0.0522
     27 C         140.0293  141.8828  166.0964 C.ar    1  UNL1        0.0620
     28 N         140.0213  141.4327  167.5272 N.ar    1  UNL1       -0.2354
     29 C         139.3437  140.1491  167.9059 C.ar    1  UNL1        0.1250
     30 N         139.3356  139.6990  169.3367 N.pl3   1  UNL1       -0.3426
     31 C         138.6741  139.3157  166.8537 C.ar    1  UNL1        0.0339
     32 C         138.6822  139.7658  165.4228 C.ar    1  UNL1        0.0053
     33 C         139.3598  141.0493  165.0442 C.ar    1  UNL1        0.0321
     34 H         139.7750  140.2460  170.0273 H       1  UNL1        0.1437
     35 H         138.8909  138.8566  169.5853 H       1  UNL1        0.1437
@<TRIPOS>BOND
     1    26    27    1
     2    27    28   ar
     3    28    29   ar
     4    29    30    1
     5    29    31   ar
     6    31    32   ar
     7    32    33   ar
     8    33     1    1
     9     1     2    2
    10     2     3    1
    11     3     4    2
    12     4     5    1
    13     5     6    2
    14     6    12    1
    15    12    13    1
    16    13    14    1
    17    14    15    1
    18    15    16    1
    19    16    17    1
    20    15    18    1
    21    18    19    1
    22    19    20    1
    23    20    21    1
    24    20    22    1
    25    22    23    1
    26     6     7    1
    27     7     8    1
    28     7     9   am
    29     9    10    2
    30     9    11    1
    31    33    27   ar
    32    11     1    1
    33    11     4    1
    34    17    12    1
    35    22    15    1
    36    30    34    1
    37    30    35    1
    38    23    24    1
    39    23    25    1
@<TRIPOS>MOLECULE
*****
 35 39 0 0 0
SMALL
GASTEIGER

@<TRIPOS>ATOM
      1 C         138.7048  140.6032  157.9972 C.2     1  UNL1        0.1285
      2 N         138.9279  139.1597  157.6555 N.2     1  UNL1       -0.0375
      3 N         139.2565  138.4288  158.9235 N.2     1  UNL1        0.0826
      4 C         139.2365  139.4204  160.0487 C.2     1  UNL1        0.3991
      5 N         139.4848  139.2734  161.5207 N.2     1  UNL1        0.0275
      6 C         139.3921  140.4701  162.4202 C.2     1  UNL1        0.4243
      7 N         139.0511  141.8140  161.8477 N.am    1  UNL1       -0.1358
      8 C         138.9584  143.0108  162.7472 C.3     1  UNL1        0.2167
      9 C         138.8029  141.9611  160.3757 C.2     1  UNL1        0.3055
     10 O         138.4619  143.3050  159.8032 O.2     1  UNL1       -0.2554
     11 C         138.8956  140.7643  159.4762 C.3     1  UNL1        0.2504
     12 N         139.6404  140.3231  163.8922 N.pl3   1  UNL1       -0.1900
     13 C         141.0328  140.4530  164.4346 C.3     1  UNL1        0.1682
     14 C         141.2810  140.3059  165.9066 C.3     1  UNL1        0.0444
     15 C         140.1367  140.0290  166.8361 C.3     1  UNL1        0.0490
     16 C         138.7443  139.8991  166.2937 C.3     1  UNL1        0.0444
     17 C         138.4961  140.0462  164.8218 C.3     1  UNL1        0.1682
     18 C         139.0978  139.7525  167.8822 C.3     1  UNL1        0.1435
     19 O         139.7865  139.6852  169.2131 O.3     1  UNL1       -0.3548
     20 C         141.2511  139.9201  168.9896 C.3     1  UNL1        0.1294
     21 C         142.3127  139.9392  170.0490 C.3     1  UNL1        0.0335
     22 C         141.4675  140.1325  167.5206 C.3     1  UNL1        0.0808
     23 N         142.7836  140.4013  166.8531 N.3     1  UNL1       -0.3202
     24 H         142.6404  140.5054  165.8486 H       1  UNL1        0.1189
     25 H         143.4185  139.6222  167.0271 H       1  UNL1        0.1189
     26 C         140.8511  142.3980  156.9144 C.3     1  UNL1        0.0522
     27 C         139.4259  142.5913  156.4882 C.ar    1  UNL1        0.0620
     28 N         139.0740  143.6821  155.5205 N.ar    1  UNL1       -0.2354
     29 C         137.6489  143.8756  155.0943 C.ar    1  UNL1        0.1250
     30 N         137.2970  144.9664  154.1267 N.pl3   1  UNL1       -0.3426
     31 C         136.5758  142.9783  155.6357 C.ar    1  UNL1        0.0339
     32 C         136.9277  141.8874  156.6033 C.ar    1  UNL1        0.0053
     33 C         138.3528  141.6940  157.0295 C.ar    1  UNL1        0.0321
     34 H         138.0013  145.5554  153.7713 H       1  UNL1        0.1437
     35 H         136.3616  145.0934  153.8469 H       1  UNL1        0.1437
@<TRIPOS>BOND
     1    26    27    1
     2    27    28   ar
     3    28    29   ar
     4    29    30    1
     5    29    31   ar
     6    31    32   ar
     7    32    33   ar
     8    33     1    1
     9     1     2    2
    10     2     3    1
    11     3     4    2
    12     4     5    1
    13     5     6    2
    14     6    12    1
    15    12    13    1
    16    13    14    1
    17    14    15    1
    18    15    16    1
    19    16    17    1
    20    15    18    1
    21    18    19    1
    22    19    20    1
    23    20    21    1
    24    20    22    1
    25    22    23    1
    26     6     7    1
    27     7     8    1
    28     7     9   am
    29     9    10    2
    30     9    11    1
    31    33    27   ar
    32    11     1    1
    33    11     4    1
    34    17    12    1
    35    22    15    1
    36    30    34    1
    37    30    35    1
    38    23    24    1
    39    23    25    1
