@<TRIPOS>MOLECULE
*****
 30 34 0 0 0
SMALL
GASTEIGER

@<TRIPOS>ATOM
      1 N         143.5663  142.3152  165.5906 N.pl3   1  UNL1       -0.3133
      2 C         142.7456  141.9987  166.8056 C.2     1  UNL1        0.2770
      3 N         141.5033  141.1587  166.8361 N.2     1  UNL1       -0.2204
      4 C         141.0130  141.1076  168.2528 C.3     1  UNL1        0.1537
      5 C         141.9523  141.9161  169.0978 C.3     1  UNL1        0.2350
      6 O         143.0231  142.4668  168.2034 O.2     1  UNL1       -0.4478
      7 C         140.1646  140.3366  167.2854 C.ar    1  UNL1        0.0367
      8 C         140.5323  140.2969  165.8317 C.ar    1  UNL1        0.0153
      9 C         139.6839  139.5259  164.8642 C.ar    1  UNL1        0.0506
     10 C         138.4678  138.7947  165.3505 C.ar    1  UNL1        0.0178
     11 C         138.1001  138.8345  166.8043 C.ar    1  UNL1        0.0379
     12 C         138.9485  139.6054  167.7716 C.ar    1  UNL1        0.1364
     13 O         138.5808  139.6452  169.2254 O.3     1  UNL1       -0.4756
     14 C         139.4291  140.4162  170.1928 C.3     1  UNL1        0.2074
     15 C         140.6452  141.1474  169.7065 C.3     1  UNL1        0.0666
     16 C         141.8371  142.0146  169.9843 C.3     1  UNL1        0.0061
     17 C         140.9228  141.6155  171.1043 C.3     1  UNL1        0.0061
     18 H         143.3018  141.9595  164.7115 H       1  UNL1        0.1466
     19 H         144.3696  142.8785  165.6722 H       1  UNL1        0.1466
     20 N         140.0516  139.4861  163.4106 N.am    1  UNL1       -0.2779
     21 C         140.7385  138.2792  162.8435 C.2     1  UNL1        0.2855
     22 O         141.0577  137.1121  163.7300 O.2     1  UNL1       -0.2664
     23 H         139.8422  140.2522  162.8287 H       1  UNL1        0.1553
     24 C         141.1062  138.2395  161.3898 C.ar    1  UNL1        0.2173
     25 N         140.0959  138.6238  160.3498 N.ar    1  UNL1       -0.2207
     26 C         140.4637  138.5840  158.8961 C.ar    1  UNL1        0.1089
     27 C         141.8418  138.1599  158.4824 C.ar    1  UNL1        0.0729
     28 BR        142.2095  138.1202  157.0288 Br      1  UNL1       -0.0458
     29 C         142.8521  137.7757  159.5224 C.ar    1  UNL1        0.1089
     30 N         142.4844  137.8154  160.9761 N.ar    1  UNL1       -0.2207
@<TRIPOS>BOND
     1     1     2    1
     2     2     3    2
     3     3     4    1
     4     4     5    1
     5     5     6    1
     6     4     7    1
     7     7     8   ar
     8     8     9   ar
     9     9    20    1
    10    20    21   am
    11    21    22    2
    12    21    24    1
    13    24    25   ar
    14    25    26   ar
    15    26    27   ar
    16    27    28    1
    17    27    29   ar
    18    29    30   ar
    19     9    10   ar
    20    10    11   ar
    21    11    12   ar
    22    12    13    1
    23    13    14    1
    24    14    15    1
    25    15    16    1
    26    16    17    1
    27     6     2    1
    28    12     7   ar
    29    17    15    1
    30    15     4    1
    31    30    24   ar
    32     1    18    1
    33     1    19    1
    34    20    23    1
@<TRIPOS>MOLECULE
*****
 30 34 0 0 0
SMALL
GASTEIGER

@<TRIPOS>ATOM
      1 N         143.3110  142.7594  164.9756 N.pl3   1  UNL1       -0.3133
      2 C         142.8383  142.3255  166.3316 C.2     1  UNL1        0.2770
      3 N         141.6222  141.4953  166.6173 N.2     1  UNL1       -0.2204
      4 C         141.5311  141.3024  168.1021 C.3     1  UNL1        0.1537
      5 C         142.6910  142.0133  168.7339 C.3     1  UNL1        0.2350
      6 O         143.4989  142.6456  167.6397 O.2     1  UNL1       -0.4478
      7 C         140.4269  140.6407  167.3319 C.ar    1  UNL1        0.0367
      8 C         140.3870  140.7479  165.8363 C.ar    1  UNL1        0.0153
      9 C         139.2828  140.0862  165.0662 C.ar    1  UNL1        0.0506
     10 C         138.2186  139.3173  165.7917 C.ar    1  UNL1        0.0178
     11 C         138.2587  139.2101  167.2874 C.ar    1  UNL1        0.0379
     12 C         139.3628  139.8718  168.0575 C.ar    1  UNL1        0.1364
     13 O         139.4028  139.7646  169.5532 O.3     1  UNL1       -0.4756
     14 C         140.5070  140.4263  170.3232 C.3     1  UNL1        0.2074
     15 C         141.5711  141.1952  169.5977 C.3     1  UNL1        0.0666
     16 C         142.8229  142.0211  169.6234 C.3     1  UNL1        0.0061
     17 C         142.2317  141.5153  170.9058 C.3     1  UNL1        0.0061
     18 H         142.8068  142.4977  164.1715 H       1  UNL1        0.1466
     19 H         144.1254  143.3059  164.8898 H       1  UNL1        0.1466
     20 N         139.2428  140.1934  163.5706 N.am    1  UNL1       -0.2779
     21 C         138.3763  141.2280  162.9157 C.2     1  UNL1        0.2855
     22 O         137.5499  142.1554  163.7564 O.2     1  UNL1       -0.2664
     23 H         139.7852  139.5848  163.0188 H       1  UNL1        0.1553
     24 C         138.3363  141.3352  161.4201 C.ar    1  UNL1        0.2173
     25 N         137.9519  140.1445  160.5928 N.ar    1  UNL1       -0.2207
     26 C         137.9120  140.2518  159.0972 C.ar    1  UNL1        0.1089
     27 C         138.2564  141.5497  158.4289 C.ar    1  UNL1        0.0729
     28 BR        138.2164  141.6569  156.9333 Br      1  UNL1       -0.0458
     29 C         138.6408  142.7404  159.2561 C.ar    1  UNL1        0.1089
     30 N         138.6808  142.6332  160.7517 N.ar    1  UNL1       -0.2207
@<TRIPOS>BOND
     1     1     2    1
     2     2     3    2
     3     3     4    1
     4     4     5    1
     5     5     6    1
     6     4     7    1
     7     7     8   ar
     8     8     9   ar
     9     9    20    1
    10    20    21   am
    11    21    22    2
    12    21    24    1
    13    24    25   ar
    14    25    26   ar
    15    26    27   ar
    16    27    28    1
    17    27    29   ar
    18    29    30   ar
    19     9    10   ar
    20    10    11   ar
    21    11    12   ar
    22    12    13    1
    23    13    14    1
    24    14    15    1
    25    15    16    1
    26    16    17    1
    27     6     2    1
    28    12     7   ar
    29    17    15    1
    30    15     4    1
    31    30    24   ar
    32     1    18    1
    33     1    19    1
    34    20    23    1
@<TRIPOS>MOLECULE
*****
 30 34 0 0 0
SMALL
GASTEIGER

@<TRIPOS>ATOM
      1 N         137.9742  142.4717  162.9376 N.pl3   1  UNL1       -0.3133
      2 C         138.8552  142.1217  164.1002 C.2     1  UNL1        0.2770
      3 N         140.2685  142.5805  164.3048 N.2     1  UNL1       -0.2204
      4 C         140.7643  141.9938  165.5933 C.3     1  UNL1        0.1537
      5 C         139.6573  141.1725  166.1849 C.3     1  UNL1        0.2350
      6 O         138.4774  141.2515  165.2622 O.2     1  UNL1       -0.4478
      7 C         141.7731  142.8472  164.8834 C.ar    1  UNL1        0.0367
      8 C         141.4186  143.5009  163.5807 C.ar    1  UNL1        0.0153
      9 C         142.4275  144.3544  162.8708 C.ar    1  UNL1        0.0506
     10 C         143.7909  144.5540  163.4635 C.ar    1  UNL1        0.0178
     11 C         144.1454  143.9002  164.7662 C.ar    1  UNL1        0.0379
     12 C         143.1365  143.0468  165.4761 C.ar    1  UNL1        0.1364
     13 O         143.4910  142.3930  166.7788 O.3     1  UNL1       -0.4756
     14 C         142.4822  141.5397  167.4887 C.3     1  UNL1        0.2074
     15 C         141.1188  141.3401  166.8959 C.3     1  UNL1        0.0666
     16 C         139.7492  140.7321  166.9636 C.3     1  UNL1        0.0061
     17 C         140.7410  140.4699  168.0579 C.3     1  UNL1        0.0061
     18 H         138.3143  143.0533  162.2198 H       1  UNL1        0.1466
     19 H         137.0559  142.1197  162.8924 H       1  UNL1        0.1466
     20 N         142.0730  145.0081  161.5682 N.am    1  UNL1       -0.2779
     21 C         141.9318  144.1784  160.3265 C.2     1  UNL1        0.2855
     22 O         142.1452  142.6949  160.3875 O.2     1  UNL1       -0.2664
     23 H         141.9329  145.9818  161.5281 H       1  UNL1        0.1553
     24 C         141.5773  144.8321  159.0239 C.ar    1  UNL1        0.2173
     25 N         140.2417  145.4939  158.8559 N.ar    1  UNL1       -0.2207
     26 C         139.8872  146.1477  157.5532 C.ar    1  UNL1        0.1089
     27 C         140.8682  146.1396  156.4185 C.ar    1  UNL1        0.0729
     28 BR        140.5137  146.7933  155.1159 Br      1  UNL1       -0.0458
     29 C         142.2038  145.4778  156.5865 C.ar    1  UNL1        0.1089
     30 N         142.5584  144.8240  157.8892 N.ar    1  UNL1       -0.2207
@<TRIPOS>BOND
     1     1     2    1
     2     2     3    2
     3     3     4    1
     4     4     5    1
     5     5     6    1
     6     4     7    1
     7     7     8   ar
     8     8     9   ar
     9     9    20    1
    10    20    21   am
    11    21    22    2
    12    21    24    1
    13    24    25   ar
    14    25    26   ar
    15    26    27   ar
    16    27    28    1
    17    27    29   ar
    18    29    30   ar
    19     9    10   ar
    20    10    11   ar
    21    11    12   ar
    22    12    13    1
    23    13    14    1
    24    14    15    1
    25    15    16    1
    26    16    17    1
    27     6     2    1
    28    12     7   ar
    29    17    15    1
    30    15     4    1
    31    30    24   ar
    32     1    18    1
    33     1    19    1
    34    20    23    1
@<TRIPOS>MOLECULE
*****
 30 34 0 0 0
SMALL
GASTEIGER

@<TRIPOS>ATOM
      1 N         138.3138  140.5166  163.3854 N.pl3   1  UNL1       -0.3133
      2 C         138.9929  140.5410  164.7227 C.2     1  UNL1        0.2770
      3 N         140.3106  141.1880  165.0306 N.2     1  UNL1       -0.2204
      4 C         140.6056  140.9696  166.4851 C.3     1  UNL1        0.1537
      5 C         139.4701  140.1876  167.0760 C.3     1  UNL1        0.2350
      6 O         138.4734  139.9227  165.9868 O.2     1  UNL1       -0.4478
      7 C         141.6639  141.7447  165.7576 C.ar    1  UNL1        0.0367
      8 C         141.5054  142.0405  164.2957 C.ar    1  UNL1        0.0153
      9 C         142.5637  142.8157  163.5682 C.ar    1  UNL1        0.0506
     10 C         143.7805  143.2951  164.3027 C.ar    1  UNL1        0.0178
     11 C         143.9390  142.9993  165.7648 C.ar    1  UNL1        0.0379
     12 C         142.8807  142.2241  166.4922 C.ar    1  UNL1        0.1364
     13 O         143.0392  141.9283  167.9542 O.3     1  UNL1       -0.4756
     14 C         141.9809  141.1532  168.6816 C.3     1  UNL1        0.2074
     15 C         140.7641  140.6738  167.9471 C.3     1  UNL1        0.0666
     16 C         139.4506  139.9495  167.9430 C.3     1  UNL1        0.0061
     17 C         140.2446  140.0555  169.2111 C.3     1  UNL1        0.0061
     18 H         138.7363  140.9531  162.6107 H       1  UNL1        0.1466
     19 H         137.4455  140.0641  163.2825 H       1  UNL1        0.1466
     20 N         142.4051  143.1114  162.1062 N.am    1  UNL1       -0.2779
     21 C         141.7386  144.3810  161.6658 C.2     1  UNL1        0.2855
     22 O         141.2307  145.3548  162.6874 O.2     1  UNL1       -0.2664
     23 H         142.7385  142.4723  161.4357 H       1  UNL1        0.1553
     24 C         141.5801  144.6768  160.2039 C.ar    1  UNL1        0.2173
     25 N         142.6032  144.1843  159.2238 N.ar    1  UNL1       -0.2207
     26 C         142.4447  144.4801  157.7618 C.ar    1  UNL1        0.1089
     27 C         141.2630  145.2683  157.2799 C.ar    1  UNL1        0.0729
     28 BR        141.1045  145.5641  155.8180 Br      1  UNL1       -0.0458
     29 C         140.2399  145.7609  158.2600 C.ar    1  UNL1        0.1089
     30 N         140.3984  145.4651  159.7220 N.ar    1  UNL1       -0.2207
@<TRIPOS>BOND
     1     1     2    1
     2     2     3    2
     3     3     4    1
     4     4     5    1
     5     5     6    1
     6     4     7    1
     7     7     8   ar
     8     8     9   ar
     9     9    20    1
    10    20    21   am
    11    21    22    2
    12    21    24    1
    13    24    25   ar
    14    25    26   ar
    15    26    27   ar
    16    27    28    1
    17    27    29   ar
    18    29    30   ar
    19     9    10   ar
    20    10    11   ar
    21    11    12   ar
    22    12    13    1
    23    13    14    1
    24    14    15    1
    25    15    16    1
    26    16    17    1
    27     6     2    1
    28    12     7   ar
    29    17    15    1
    30    15     4    1
    31    30    24   ar
    32     1    18    1
    33     1    19    1
    34    20    23    1
@<TRIPOS>MOLECULE
*****
 30 34 0 0 0
SMALL
GASTEIGER

@<TRIPOS>ATOM
      1 N         144.9890  143.2597  161.8272 N.pl3   1  UNL1       -0.3133
      2 C         144.1918  143.0568  163.0816 C.2     1  UNL1        0.2770
      3 N         142.7829  143.5155  163.3146 N.2     1  UNL1       -0.2204
      4 C         142.3840  143.1017  164.7002 C.3     1  UNL1        0.1537
      5 C         143.5465  142.3874  165.3234 C.3     1  UNL1        0.2350
      6 O         144.6637  142.3596  164.3230 O.2     1  UNL1       -0.4478
      7 C         141.3112  143.8334  163.9493 C.ar    1  UNL1        0.0367
      8 C         141.5666  144.3093  162.5500 C.ar    1  UNL1        0.0153
      9 C         140.4938  145.0410  161.7990 C.ar    1  UNL1        0.0506
     10 C         139.1656  145.2967  162.4475 C.ar    1  UNL1        0.0178
     11 C         138.9102  144.8208  163.8470 C.ar    1  UNL1        0.0379
     12 C         139.9830  144.0892  164.5978 C.ar    1  UNL1        0.1364
     13 O         139.7277  143.6132  165.9973 O.3     1  UNL1       -0.4756
     14 C         140.8004  142.8816  166.7481 C.3     1  UNL1        0.2074
     15 C         142.1286  142.6258  166.0996 C.3     1  UNL1        0.0666
     16 C         143.5148  142.0558  166.1587 C.3     1  UNL1        0.0061
     17 C         142.6005  141.9287  167.3410 C.3     1  UNL1        0.0061
     18 H         144.5898  143.7323  161.0613 H       1  UNL1        0.1466
     19 H         145.9113  142.9202  161.7697 H       1  UNL1        0.1466
     20 N         140.7492  145.5169  160.3997 N.am    1  UNL1       -0.2779
     21 C         140.1173  144.8072  159.2390 C.2     1  UNL1        0.2855
     22 O         139.2300  143.6216  159.4778 O.2     1  UNL1       -0.2664
     23 H         141.3315  146.2951  160.2430 H       1  UNL1        0.1553
     24 C         140.3727  145.2831  157.8397 C.ar    1  UNL1        0.2173
     25 N         141.3587  144.5609  156.9701 N.ar    1  UNL1       -0.2207
     26 C         141.6140  145.0368  155.5707 C.ar    1  UNL1        0.1089
     27 C         140.8834  146.2349  155.0409 C.ar    1  UNL1        0.0729
     28 BR        141.1388  146.7108  153.6415 Br      1  UNL1       -0.0458
     29 C         139.8974  146.9571  155.9105 C.ar    1  UNL1        0.1089
     30 N         139.6420  146.4813  157.3099 N.ar    1  UNL1       -0.2207
@<TRIPOS>BOND
     1     1     2    1
     2     2     3    2
     3     3     4    1
     4     4     5    1
     5     5     6    1
     6     4     7    1
     7     7     8   ar
     8     8     9   ar
     9     9    20    1
    10    20    21   am
    11    21    22    2
    12    21    24    1
    13    24    25   ar
    14    25    26   ar
    15    26    27   ar
    16    27    28    1
    17    27    29   ar
    18    29    30   ar
    19     9    10   ar
    20    10    11   ar
    21    11    12   ar
    22    12    13    1
    23    13    14    1
    24    14    15    1
    25    15    16    1
    26    16    17    1
    27     6     2    1
    28    12     7   ar
    29    17    15    1
    30    15     4    1
    31    30    24   ar
    32     1    18    1
    33     1    19    1
    34    20    23    1
@<TRIPOS>MOLECULE
*****
 30 34 0 0 0
SMALL
GASTEIGER

@<TRIPOS>ATOM
      1 N         138.1945  138.9983  166.3104 N.pl3   1  UNL1       -0.3133
      2 C         139.0775  139.6643  167.3238 C.2     1  UNL1        0.2770
      3 N         140.3114  140.4642  167.0279 N.2     1  UNL1       -0.2204
      4 C         140.8781  140.9415  168.3322 C.3     1  UNL1        0.1537
      5 C         139.9944  140.4365  169.4340 C.3     1  UNL1        0.2350
      6 O         138.8816  139.6471  168.8108 O.2     1  UNL1       -0.4478
      7 C         141.6646  141.3741  167.1304 C.ar    1  UNL1        0.0367
      8 C         141.2174  140.9711  165.7565 C.ar    1  UNL1        0.0153
      9 C         142.0039  141.4037  164.5547 C.ar    1  UNL1        0.0506
     10 C         143.2377  142.2393  164.7268 C.ar    1  UNL1        0.0178
     11 C         143.6849  142.6423  166.1008 C.ar    1  UNL1        0.0379
     12 C         142.8984  142.2097  167.3025 C.ar    1  UNL1        0.1364
     13 O         143.3456  142.6127  168.6765 O.3     1  UNL1       -0.4756
     14 C         142.5591  142.1801  169.8782 C.3     1  UNL1        0.2074
     15 C         141.3253  141.3445  169.7060 C.3     1  UNL1        0.0666
     16 C         140.1589  140.6123  170.3005 C.3     1  UNL1        0.0061
     17 C         141.1294  141.3274  171.1931 C.3     1  UNL1        0.0061
     18 H         138.4070  139.0667  165.3515 H       1  UNL1        0.1466
     19 H         137.4024  138.4927  166.6042 H       1  UNL1        0.1466
     20 N         141.5567  141.0008  163.1808 N.am    1  UNL1       -0.2779
     21 C         141.8918  139.6373  162.6528 C.2     1  UNL1        0.2855
     22 O         142.6741  138.6769  163.4986 O.2     1  UNL1       -0.2664
     23 H         141.0432  141.6311  162.6256 H       1  UNL1        0.1553
     24 C         141.4446  139.2344  161.2789 C.ar    1  UNL1        0.2173
     25 N         139.9967  138.9428  161.0169 N.ar    1  UNL1       -0.2207
     26 C         139.5495  138.5398  159.6430 C.ar    1  UNL1        0.1089
     27 C         140.5501  138.4284  158.5311 C.ar    1  UNL1        0.0729
     28 BR        140.1029  138.0254  157.1573 Br      1  UNL1       -0.0458
     29 C         141.9980  138.7200  158.7931 C.ar    1  UNL1        0.1089
     30 N         142.4452  139.1229  160.1670 N.ar    1  UNL1       -0.2207
@<TRIPOS>BOND
     1     1     2    1
     2     2     3    2
     3     3     4    1
     4     4     5    1
     5     5     6    1
     6     4     7    1
     7     7     8   ar
     8     8     9   ar
     9     9    20    1
    10    20    21   am
    11    21    22    2
    12    21    24    1
    13    24    25   ar
    14    25    26   ar
    15    26    27   ar
    16    27    28    1
    17    27    29   ar
    18    29    30   ar
    19     9    10   ar
    20    10    11   ar
    21    11    12   ar
    22    12    13    1
    23    13    14    1
    24    14    15    1
    25    15    16    1
    26    16    17    1
    27     6     2    1
    28    12     7   ar
    29    17    15    1
    30    15     4    1
    31    30    24   ar
    32     1    18    1
    33     1    19    1
    34    20    23    1
@<TRIPOS>MOLECULE
*****
 30 34 0 0 0
SMALL
GASTEIGER

@<TRIPOS>ATOM
      1 N         143.1057  143.0237  164.4431 N.pl3   1  UNL1       -0.3133
      2 C         142.8044  142.5258  165.8256 C.2     1  UNL1        0.2770
      3 N         141.6518  141.6484  166.2150 N.2     1  UNL1       -0.2204
      4 C         141.7379  141.3983  167.6915 C.3     1  UNL1        0.1537
      5 C         142.9436  142.1212  168.2146 C.3     1  UNL1        0.2350
      6 O         143.6027  142.8180  167.0614 O.2     1  UNL1       -0.4478
      7 C         140.5702  140.7314  167.0268 C.ar    1  UNL1        0.0367
      8 C         140.3551  140.8922  165.5510 C.ar    1  UNL1        0.0153
      9 C         139.1874  140.2253  164.8863 C.ar    1  UNL1        0.0506
     10 C         138.2349  139.3976  165.6973 C.ar    1  UNL1        0.0178
     11 C         138.4501  139.2369  167.1731 C.ar    1  UNL1        0.0379
     12 C         139.6178  139.9037  167.8378 C.ar    1  UNL1        0.1364
     13 O         139.8330  139.7430  169.3136 O.3     1  UNL1       -0.4756
     14 C         141.0006  140.4098  169.9783 C.3     1  UNL1        0.2074
     15 C         141.9531  141.2375  169.1673 C.3     1  UNL1        0.0666
     16 C         143.1771  142.1004  169.0828 C.3     1  UNL1        0.0061
     17 C         142.7514  141.5297  170.4031 C.3     1  UNL1        0.0061
     18 H         142.5192  142.7762  163.6920 H       1  UNL1        0.1466
     19 H         143.8899  143.5980  164.2867 H       1  UNL1        0.1466
     20 N         138.9722  140.3861  163.4106 N.am    1  UNL1       -0.2779
     21 C         139.6421  139.4502  162.4486 C.2     1  UNL1        0.2855
     22 O         140.5271  138.3535  162.9623 O.2     1  UNL1       -0.2664
     23 H         138.3913  141.1059  163.0733 H       1  UNL1        0.1553
     24 C         139.4269  139.6110  160.9729 C.ar    1  UNL1        0.2173
     25 N         138.7857  140.8579  160.4399 N.ar    1  UNL1       -0.2207
     26 C         138.5705  141.0187  158.9641 C.ar    1  UNL1        0.1089
     27 C         138.9966  139.9326  158.0213 C.ar    1  UNL1        0.0729
     28 BR        138.7814  140.0934  156.5456 Br      1  UNL1       -0.0458
     29 C         139.6378  138.6857  158.5543 C.ar    1  UNL1        0.1089
     30 N         139.8530  138.5249  160.0300 N.ar    1  UNL1       -0.2207
@<TRIPOS>BOND
     1     1     2    1
     2     2     3    2
     3     3     4    1
     4     4     5    1
     5     5     6    1
     6     4     7    1
     7     7     8   ar
     8     8     9   ar
     9     9    20    1
    10    20    21   am
    11    21    22    2
    12    21    24    1
    13    24    25   ar
    14    25    26   ar
    15    26    27   ar
    16    27    28    1
    17    27    29   ar
    18    29    30   ar
    19     9    10   ar
    20    10    11   ar
    21    11    12   ar
    22    12    13    1
    23    13    14    1
    24    14    15    1
    25    15    16    1
    26    16    17    1
    27     6     2    1
    28    12     7   ar
    29    17    15    1
    30    15     4    1
    31    30    24   ar
    32     1    18    1
    33     1    19    1
    34    20    23    1
@<TRIPOS>MOLECULE
*****
 30 34 0 0 0
SMALL
GASTEIGER

@<TRIPOS>ATOM
      1 N         137.9688  140.0401  160.2686 N.pl3   1  UNL1       -0.3133
      2 C         138.2793  140.1213  161.7339 C.2     1  UNL1        0.2770
      3 N         138.8450  141.3113  162.4506 N.2     1  UNL1       -0.2204
      4 C         138.9939  140.9521  163.8994 C.3     1  UNL1        0.1537
      5 C         138.5203  139.5401  164.0779 C.3     1  UNL1        0.2350
      6 O         138.0786  139.0267  162.7396 O.2     1  UNL1       -0.4478
      7 C         139.4326  142.3480  163.5686 C.ar    1  UNL1        0.0367
      8 C         139.3416  142.8481  162.1574 C.ar    1  UNL1        0.0153
      9 C         139.7802  144.2439  161.8266 C.ar    1  UNL1        0.0506
     10 C         140.3098  145.1395  162.9070 C.ar    1  UNL1        0.0178
     11 C         140.4008  144.6393  164.3183 C.ar    1  UNL1        0.0379
     12 C         139.9622  143.2436  164.6490 C.ar    1  UNL1        0.1364
     13 O         140.0532  142.7434  166.0603 O.3     1  UNL1       -0.4756
     14 C         139.6145  141.3476  166.3910 C.3     1  UNL1        0.2074
     15 C         139.0849  140.4520  165.3106 C.3     1  UNL1        0.0666
     16 C         138.5259  139.1291  164.8778 C.3     1  UNL1        0.0061
     17 C         138.8842  139.3574  166.3163 C.3     1  UNL1        0.0061
     18 H         138.1361  140.8160  159.6862 H       1  UNL1        0.1466
     19 H         137.5977  139.2109  159.8892 H       1  UNL1        0.1466
     20 N         139.6892  144.7441  160.4154 N.am    1  UNL1       -0.2779
     21 C         140.9347  144.9066  159.5955 C.2     1  UNL1        0.2855
     22 O         142.2712  144.5690  160.1867 O.2     1  UNL1       -0.2664
     23 H         138.8120  144.9657  160.0273 H       1  UNL1        0.1553
     24 C         140.8437  145.4067  158.1843 C.ar    1  UNL1        0.2173
     25 N         139.7673  146.3785  157.8009 N.ar    1  UNL1       -0.2207
     26 C         139.6763  146.8786  156.3896 C.ar    1  UNL1        0.1089
     27 C         140.6618  146.4070  155.3618 C.ar    1  UNL1        0.0729
     28 BR        140.5708  146.9072  153.9506 Br      1  UNL1       -0.0458
     29 C         141.7382  145.4353  155.7452 C.ar    1  UNL1        0.1089
     30 N         141.8292  144.9352  157.1564 N.ar    1  UNL1       -0.2207
@<TRIPOS>BOND
     1     1     2    1
     2     2     3    2
     3     3     4    1
     4     4     5    1
     5     5     6    1
     6     4     7    1
     7     7     8   ar
     8     8     9   ar
     9     9    20    1
    10    20    21   am
    11    21    22    2
    12    21    24    1
    13    24    25   ar
    14    25    26   ar
    15    26    27   ar
    16    27    28    1
    17    27    29   ar
    18    29    30   ar
    19     9    10   ar
    20    10    11   ar
    21    11    12   ar
    22    12    13    1
    23    13    14    1
    24    14    15    1
    25    15    16    1
    26    16    17    1
    27     6     2    1
    28    12     7   ar
    29    17    15    1
    30    15     4    1
    31    30    24   ar
    32     1    18    1
    33     1    19    1
    34    20    23    1
@<TRIPOS>MOLECULE
*****
 30 34 0 0 0
SMALL
GASTEIGER

@<TRIPOS>ATOM
      1 N         138.2580  137.2572  162.5840 N.pl3   1  UNL1       -0.3133
      2 C         138.9648  138.0074  163.6738 C.2     1  UNL1        0.2770
      3 N         140.4224  138.3606  163.6988 N.2     1  UNL1       -0.2204
      4 C         140.6964  139.1076  164.9704 C.3     1  UNL1        0.1537
      5 C         139.4082  139.2160  165.7312 C.3     1  UNL1        0.2350
      6 O         138.3380  138.5361  164.9299 O.2     1  UNL1       -0.4478
      7 C         141.9037  138.9214  164.0999 C.ar    1  UNL1        0.0367
      8 C         141.7820  138.1919  162.7949 C.ar    1  UNL1        0.0153
      9 C         142.9893  138.0057  161.9243 C.ar    1  UNL1        0.0506
     10 C         144.3183  138.5489  162.3588 C.ar    1  UNL1        0.0178
     11 C         144.4399  139.2783  163.6639 C.ar    1  UNL1        0.0379
     12 C         143.2327  139.4646  164.5344 C.ar    1  UNL1        0.1364
     13 O         143.3544  140.1940  165.8395 O.3     1  UNL1       -0.4756
     14 C         142.1471  140.3803  166.7099 C.3     1  UNL1        0.2074
     15 C         140.8182  139.8371  166.2754 C.3     1  UNL1        0.0666
     16 C         139.3539  139.6310  166.5272 C.3     1  UNL1        0.0061
     17 C         140.1914  140.3657  167.5315 C.3     1  UNL1        0.0061
     18 H         138.7582  136.9494  161.7939 H       1  UNL1        0.1466
     19 H         137.2938  137.0727  162.6588 H       1  UNL1        0.1466
     20 N         142.8676  137.2762  160.6193 N.am    1  UNL1       -0.2779
     21 C         142.5823  138.0372  159.3585 C.2     1  UNL1        0.2855
     22 O         142.4188  139.5276  159.4027 O.2     1  UNL1       -0.2664
     23 H         142.9749  136.2980  160.5903 H       1  UNL1        0.1553
     24 C         142.4606  137.3078  158.0535 C.ar    1  UNL1        0.2173
     25 N         143.3500  136.1351  157.7639 N.ar    1  UNL1       -0.2207
     26 C         143.2283  135.4057  156.4588 C.ar    1  UNL1        0.1089
     27 C         142.2171  135.8489  155.4434 C.ar    1  UNL1        0.0729
     28 BR        142.0954  135.1195  154.1384 Br      1  UNL1       -0.0458
     29 C         141.3277  137.0215  155.7330 C.ar    1  UNL1        0.1089
     30 N         141.4494  137.7510  157.0380 N.ar    1  UNL1       -0.2207
@<TRIPOS>BOND
     1     1     2    1
     2     2     3    2
     3     3     4    1
     4     4     5    1
     5     5     6    1
     6     4     7    1
     7     7     8   ar
     8     8     9   ar
     9     9    20    1
    10    20    21   am
    11    21    22    2
    12    21    24    1
    13    24    25   ar
    14    25    26   ar
    15    26    27   ar
    16    27    28    1
    17    27    29   ar
    18    29    30   ar
    19     9    10   ar
    20    10    11   ar
    21    11    12   ar
    22    12    13    1
    23    13    14    1
    24    14    15    1
    25    15    16    1
    26    16    17    1
    27     6     2    1
    28    12     7   ar
    29    17    15    1
    30    15     4    1
    31    30    24   ar
    32     1    18    1
    33     1    19    1
    34    20    23    1
