@<TRIPOS>MOLECULE
*****
 34 38 0 0 0
SMALL
GASTEIGER

@<TRIPOS>ATOM
      1 N         141.4125  138.2679  158.1038 N.3     1  UNL1       -0.2689
      2 C         142.4901  138.6163  159.0874 C.3     1  UNL1        0.0741
      3 C         142.1270  139.0266  160.4837 C.3     1  UNL1        0.0369
      4 C         140.6862  139.0885  160.8965 C.3     1  UNL1        0.0747
      5 C         139.6086  138.7402  159.9130 C.3     1  UNL1        0.0369
      6 C         139.9717  138.3299  158.5166 C.3     1  UNL1        0.0741
      7 N         140.3231  139.4988  162.2928 N.am    1  UNL1       -0.2999
      8 C         140.2508  138.4700  163.3820 C.2     1  UNL1        0.2806
      9 O         140.5416  137.0309  163.0749 O.2     1  UNL1       -0.2668
     10 H         140.1323  140.4434  162.4944 H       1  UNL1        0.1498
     11 C         139.8877  138.8804  164.7784 C.ar    1  UNL1        0.2014
     12 C         138.6797  138.2900  165.4434 C.ar    1  UNL1        0.0843
     13 C         138.3166  138.7003  166.8398 C.ar    1  UNL1        0.2018
     14 O         137.1087  138.1099  167.5048 O.2     1  UNL1       -0.2864
     15 C         139.1614  139.7011  167.5711 C.ar    1  UNL1        0.0737
     16 C         138.7983  140.1114  168.9674 C.ar    1  UNL1        0.0085
     17 C         139.6430  141.1122  169.6987 C.ar    1  UNL1        0.0299
     18 C         140.8510  141.7026  169.0336 C.ar    1  UNL1        0.1432
     19 F         141.6958  142.7034  169.7650 F       1  UNL1       -0.2041
     20 C         141.2141  141.2923  167.6373 C.ar    1  UNL1        0.0672
     21 C         140.3693  140.2915  166.9061 C.ar    1  UNL1        0.1508
     22 O         140.7325  139.8812  165.5097 O.2     1  UNL1       -0.4486
     23 C         141.7756  137.8576  156.7075 C.3     1  UNL1        0.0992
     24 C         143.8592  131.8236  156.6308 C.ar    1  UNL1        0.2057
     25 N         144.1132  133.1104  157.3585 N.ar    1  UNL1       -0.2121
     26 C         143.1897  134.1505  156.7969 C.ar    1  UNL1        0.1183
     27 C         142.9933  135.6009  157.1253 C.ar    1  UNL1        0.0194
     28 C         141.9721  136.4072  156.3791 C.ar    1  UNL1       -0.0044
     29 C         141.1473  135.7632  155.3044 C.ar    1  UNL1        0.0003
     30 C         141.3438  134.3129  154.9760 C.ar    1  UNL1        0.0388
     31 C         142.3649  133.5065  155.7222 C.ar    1  UNL1        0.1643
     32 O         142.7787  132.0684  155.6196 O.2     1  UNL1       -0.4384
     33 C         144.4209  129.8256  158.1938 C.3     1  UNL1        0.0102
     34 C         144.5622  130.5206  156.8721 C.3     1  UNL1        0.0853
@<TRIPOS>BOND
     1    33    34    1
     2    34    24    1
     3    24    25   ar
     4    25    26   ar
     5    26    27   ar
     6    27    28   ar
     7    28    23    1
     8    23     1    1
     9     1     2    1
    10     2     3    1
    11     3     4    1
    12     4     7    1
    13     7     8   am
    14     8     9    2
    15     8    11    1
    16    11    12   ar
    17    12    13   ar
    18    13    14    2
    19    13    15   ar
    20    15    16   ar
    21    16    17   ar
    22    17    18   ar
    23    18    19    1
    24    18    20   ar
    25    20    21   ar
    26    21    22   ar
    27     4     5    1
    28     5     6    1
    29    28    29   ar
    30    29    30   ar
    31    30    31   ar
    32    31    32   ar
    33    32    24   ar
    34    31    26   ar
    35     6     1    1
    36    22    11   ar
    37    21    15   ar
    38     7    10    1
@<TRIPOS>MOLECULE
*****
 34 38 0 0 0
SMALL
GASTEIGER

@<TRIPOS>ATOM
      1 N         144.3275  142.9917  164.8901 N.3     1  UNL1       -0.2689
      2 C         145.1301  141.8467  164.3472 C.3     1  UNL1        0.0741
      3 C         145.4171  141.7622  162.8773 C.3     1  UNL1        0.0369
      4 C         144.9015  142.8228  161.9503 C.3     1  UNL1        0.0747
      5 C         144.0989  143.9679  162.4932 C.3     1  UNL1        0.0369
      6 C         143.8119  144.0523  163.9630 C.3     1  UNL1        0.0741
      7 N         145.1885  142.7383  160.4805 N.am    1  UNL1       -0.2999
      8 C         144.1992  142.0881  159.5593 C.2     1  UNL1        0.2806
      9 O         142.9230  141.5224  160.1080 O.2     1  UNL1       -0.2668
     10 H         146.0262  143.1096  160.1204 H       1  UNL1        0.1498
     11 C         144.4863  142.0036  158.0894 C.ar    1  UNL1        0.2014
     12 C         143.3753  141.7156  157.1236 C.ar    1  UNL1        0.0843
     13 C         143.6623  141.6312  155.6538 C.ar    1  UNL1        0.2018
     14 O         142.5512  141.3432  154.6880 O.2     1  UNL1       -0.2864
     15 C         145.0603  141.8347  155.1497 C.ar    1  UNL1        0.0737
     16 C         145.3473  141.7502  153.6799 C.ar    1  UNL1        0.0085
     17 C         146.7453  141.9537  153.1758 C.ar    1  UNL1        0.0299
     18 C         147.8564  142.2416  154.1416 C.ar    1  UNL1        0.1432
     19 F         149.2544  142.4451  153.6374 F       1  UNL1       -0.2041
     20 C         147.5694  142.3261  155.6114 C.ar    1  UNL1        0.0672
     21 C         146.1714  142.1226  156.1155 C.ar    1  UNL1        0.1508
     22 O         145.8843  142.2071  157.5854 O.2     1  UNL1       -0.4486
     23 C         144.0405  143.0762  166.3599 C.3     1  UNL1        0.0992
     24 C         138.8834  139.4026  167.1754 C.ar    1  UNL1        0.2057
     25 N         139.6372  140.0843  166.0722 N.ar    1  UNL1       -0.2121
     26 C         140.8058  140.7998  166.6826 C.ar    1  UNL1        0.1183
     27 C         141.8946  141.6384  166.0816 C.ar    1  UNL1        0.0194
     28 C         142.9518  142.2376  166.9609 C.ar    1  UNL1       -0.0044
     29 C         142.9202  141.9980  168.4413 C.ar    1  UNL1        0.0003
     30 C         141.8314  141.1594  169.0423 C.ar    1  UNL1        0.0388
     31 C         140.7742  140.5602  168.1630 C.ar    1  UNL1        0.1643
     32 O         139.5861  139.6967  168.4675 O.2     1  UNL1       -0.4384
     33 C         137.7467  137.1605  166.5187 C.3     1  UNL1        0.0102
     34 C         137.6444  138.5724  167.0147 C.3     1  UNL1        0.0853
@<TRIPOS>BOND
     1    33    34    1
     2    34    24    1
     3    24    25   ar
     4    25    26   ar
     5    26    27   ar
     6    27    28   ar
     7    28    23    1
     8    23     1    1
     9     1     2    1
    10     2     3    1
    11     3     4    1
    12     4     7    1
    13     7     8   am
    14     8     9    2
    15     8    11    1
    16    11    12   ar
    17    12    13   ar
    18    13    14    2
    19    13    15   ar
    20    15    16   ar
    21    16    17   ar
    22    17    18   ar
    23    18    19    1
    24    18    20   ar
    25    20    21   ar
    26    21    22   ar
    27     4     5    1
    28     5     6    1
    29    28    29   ar
    30    29    30   ar
    31    30    31   ar
    32    31    32   ar
    33    32    24   ar
    34    31    26   ar
    35     6     1    1
    36    22    11   ar
    37    21    15   ar
    38     7    10    1
@<TRIPOS>MOLECULE
*****
 34 38 0 0 0
SMALL
GASTEIGER

@<TRIPOS>ATOM
      1 N         141.6988  138.4685  158.6852 N.3     1  UNL1       -0.2689
      2 C         142.9367  138.5692  159.5264 C.3     1  UNL1        0.0741
      3 C         142.8237  138.8362  160.9982 C.3     1  UNL1        0.0369
      4 C         141.4729  139.0025  161.6287 C.3     1  UNL1        0.0747
      5 C         140.2350  138.9018  160.7876 C.3     1  UNL1        0.0369
      6 C         140.3479  138.6348  159.3159 C.3     1  UNL1        0.0741
      7 N         141.3600  139.2695  163.1004 N.am    1  UNL1       -0.2999
      8 C         141.7916  140.5935  163.6577 C.2     1  UNL1        0.2806
      9 O         142.3361  141.6506  162.7434 O.2     1  UNL1       -0.2668
     10 H         141.0026  138.5757  163.7005 H       1  UNL1        0.1498
     11 C         141.6786  140.8605  165.1295 C.ar    1  UNL1        0.2014
     12 C         142.7411  141.6530  165.8317 C.ar    1  UNL1        0.0843
     13 C         142.6282  141.9200  167.3034 C.ar    1  UNL1        0.2018
     14 O         143.6907  142.7125  168.0055 O.2     1  UNL1       -0.2864
     15 C         141.4528  141.3944  168.0730 C.ar    1  UNL1        0.0737
     16 C         141.3399  141.6614  169.5447 C.ar    1  UNL1        0.0085
     17 C         140.1645  141.1358  170.3142 C.ar    1  UNL1        0.0299
     18 C         139.1020  140.3433  169.6120 C.ar    1  UNL1        0.1432
     19 F         137.9266  139.8177  170.3817 F       1  UNL1       -0.2041
     20 C         139.2149  140.0763  168.1403 C.ar    1  UNL1        0.0672
     21 C         140.3903  140.6019  167.3708 C.ar    1  UNL1        0.1508
     22 O         140.5032  140.3349  165.8990 O.2     1  UNL1       -0.4486
     23 C         141.8117  138.2015  157.2136 C.3     1  UNL1        0.0992
     24 C         143.9898  132.2802  156.2387 C.ar    1  UNL1        0.2057
     25 N         144.3198  133.4998  157.0472 N.ar    1  UNL1       -0.2121
     26 C         143.3023  134.5554  156.7299 C.ar    1  UNL1        0.1183
     27 C         143.1250  135.9599  157.2259 C.ar    1  UNL1        0.0194
     28 C         141.9890  136.7971  156.7175 C.ar    1  UNL1       -0.0044
     29 C         141.0303  136.2298  155.7131 C.ar    1  UNL1        0.0003
     30 C         141.2076  134.8253  155.2170 C.ar    1  UNL1        0.0388
     31 C         142.3436  133.9881  155.7254 C.ar    1  UNL1        0.1643
     32 O         142.7685  132.5820  155.4219 O.2     1  UNL1       -0.4384
     33 C         144.7181  130.0924  155.0414 C.3     1  UNL1        0.0102
     34 C         144.7481  130.9859  156.2459 C.3     1  UNL1        0.0853
@<TRIPOS>BOND
     1    33    34    1
     2    34    24    1
     3    24    25   ar
     4    25    26   ar
     5    26    27   ar
     6    27    28   ar
     7    28    23    1
     8    23     1    1
     9     1     2    1
    10     2     3    1
    11     3     4    1
    12     4     7    1
    13     7     8   am
    14     8     9    2
    15     8    11    1
    16    11    12   ar
    17    12    13   ar
    18    13    14    2
    19    13    15   ar
    20    15    16   ar
    21    16    17   ar
    22    17    18   ar
    23    18    19    1
    24    18    20   ar
    25    20    21   ar
    26    21    22   ar
    27     4     5    1
    28     5     6    1
    29    28    29   ar
    30    29    30   ar
    31    30    31   ar
    32    31    32   ar
    33    32    24   ar
    34    31    26   ar
    35     6     1    1
    36    22    11   ar
    37    21    15   ar
    38     7    10    1
@<TRIPOS>MOLECULE
*****
 34 38 0 0 0
SMALL
GASTEIGER

@<TRIPOS>ATOM
      1 N         141.1149  138.0939  157.3732 N.3     1  UNL1       -0.2689
      2 C         142.5079  138.3631  157.8601 C.3     1  UNL1        0.0741
      3 C         142.7326  138.8382  159.2651 C.3     1  UNL1        0.0369
      4 C         141.5644  139.0440  160.1831 C.3     1  UNL1        0.0747
      5 C         140.1714  138.7747  159.6962 C.3     1  UNL1        0.0369
      6 C         139.9466  138.2997  158.2913 C.3     1  UNL1        0.0741
      7 N         141.7891  139.5190  161.5880 N.am    1  UNL1       -0.2999
      8 C         141.5840  138.5795  162.7392 C.2     1  UNL1        0.2806
      9 O         141.1542  137.1650  162.4855 O.2     1  UNL1       -0.2668
     10 H         142.0712  140.4474  161.7545 H       1  UNL1        0.1498
     11 C         141.8088  139.0546  164.1442 C.ar    1  UNL1        0.2014
     12 C         142.7433  138.3068  165.0483 C.ar    1  UNL1        0.0843
     13 C         142.9680  138.7819  166.4532 C.ar    1  UNL1        0.2018
     14 O         143.9025  138.0341  167.3573 O.2     1  UNL1       -0.2864
     15 C         142.2583  140.0048  166.9540 C.ar    1  UNL1        0.0737
     16 C         142.4830  140.4799  168.3589 C.ar    1  UNL1        0.0085
     17 C         141.7733  141.7027  168.8597 C.ar    1  UNL1        0.0299
     18 C         140.8388  142.4505  167.9555 C.ar    1  UNL1        0.1432
     19 F         140.1290  143.6735  168.4564 F       1  UNL1       -0.2041
     20 C         140.6140  141.9755  166.5506 C.ar    1  UNL1        0.0672
     21 C         141.3238  140.7526  166.0499 C.ar    1  UNL1        0.1508
     22 O         141.0990  140.2775  164.6449 O.2     1  UNL1       -0.4486
     23 C         140.8902  137.6188  155.9683 C.3     1  UNL1        0.0992
     24 C         144.0451  132.0735  155.7370 C.ar    1  UNL1        0.2057
     25 N         143.7372  133.1727  156.7102 N.ar    1  UNL1       -0.2121
     26 C         142.8985  134.1960  156.0035 C.ar    1  UNL1        0.1183
     27 C         142.2992  135.4925  156.4617 C.ar    1  UNL1        0.0194
     28 C         141.4895  136.3223  155.5100 C.ar    1  UNL1       -0.0044
     29 C         141.2790  135.8556  154.1001 C.ar    1  UNL1        0.0003
     30 C         141.8783  134.5591  153.6419 C.ar    1  UNL1        0.0388
     31 C         142.6880  133.7293  154.5936 C.ar    1  UNL1        0.1643
     32 O         143.3966  132.4176  154.4289 O.2     1  UNL1       -0.4384
     33 C         144.4823  129.9442  157.1600 C.3     1  UNL1        0.0102
     34 C         144.8586  130.8459  156.0219 C.3     1  UNL1        0.0853
@<TRIPOS>BOND
     1    33    34    1
     2    34    24    1
     3    24    25   ar
     4    25    26   ar
     5    26    27   ar
     6    27    28   ar
     7    28    23    1
     8    23     1    1
     9     1     2    1
    10     2     3    1
    11     3     4    1
    12     4     7    1
    13     7     8   am
    14     8     9    2
    15     8    11    1
    16    11    12   ar
    17    12    13   ar
    18    13    14    2
    19    13    15   ar
    20    15    16   ar
    21    16    17   ar
    22    17    18   ar
    23    18    19    1
    24    18    20   ar
    25    20    21   ar
    26    21    22   ar
    27     4     5    1
    28     5     6    1
    29    28    29   ar
    30    29    30   ar
    31    30    31   ar
    32    31    32   ar
    33    32    24   ar
    34    31    26   ar
    35     6     1    1
    36    22    11   ar
    37    21    15   ar
    38     7    10    1
@<TRIPOS>MOLECULE
*****
 34 38 0 0 0
SMALL
GASTEIGER

@<TRIPOS>ATOM
      1 N         141.4766  138.3007  157.8102 N.3     1  UNL1       -0.2689
      2 C         140.0349  138.3617  158.2198 C.3     1  UNL1        0.0741
      3 C         139.6699  138.4130  159.6739 C.3     1  UNL1        0.0369
      4 C         140.7466  138.4033  160.7182 C.3     1  UNL1        0.0747
      5 C         142.1883  138.3422  160.3086 C.3     1  UNL1        0.0369
      6 C         142.5533  138.2909  158.8547 C.3     1  UNL1        0.0741
      7 N         140.3815  138.4546  162.1722 N.am    1  UNL1       -0.2999
      8 C         140.3665  139.7684  162.8958 C.2     1  UNL1        0.2806
      9 O         140.7165  141.0309  162.1655 O.2     1  UNL1       -0.2668
     10 H         140.1518  137.6259  162.6516 H       1  UNL1        0.1498
     11 C         140.0014  139.8196  164.3499 C.ar    1  UNL1        0.2014
     12 C         138.8718  138.9806  164.8695 C.ar    1  UNL1        0.0843
     13 C         138.5067  139.0318  166.3235 C.ar    1  UNL1        0.2018
     14 O         137.3771  138.1928  166.8431 O.2     1  UNL1       -0.2864
     15 C         139.2712  139.9221  167.2579 C.ar    1  UNL1        0.0737
     16 C         138.9061  139.9733  168.7118 C.ar    1  UNL1        0.0085
     17 C         139.6706  140.8636  169.6461 C.ar    1  UNL1        0.0299
     18 C         140.8002  141.7026  169.1264 C.ar    1  UNL1        0.1432
     19 F         141.5648  142.5929  170.0608 F       1  UNL1       -0.2041
     20 C         141.1653  141.6514  167.6725 C.ar    1  UNL1        0.0672
     21 C         140.4008  140.7611  166.7382 C.ar    1  UNL1        0.1508
     22 O         140.7659  140.7099  165.2842 O.2     1  UNL1       -0.4486
     23 C         141.8417  138.2493  156.3563 C.3     1  UNL1        0.0992
     24 C         142.2727  132.0064  155.0928 C.ar    1  UNL1        0.2057
     25 N         142.1694  132.9287  156.2712 N.ar    1  UNL1       -0.2121
     26 C         142.1043  134.3354  155.7545 C.ar    1  UNL1        0.1183
     27 C         141.9957  135.6577  156.4543 C.ar    1  UNL1        0.0194
     28 C         141.9503  136.9271  155.6564 C.ar    1  UNL1       -0.0044
     29 C         142.0134  136.8741  154.1587 C.ar    1  UNL1        0.0003
     30 C         142.1219  135.5518  153.4589 C.ar    1  UNL1        0.0388
     31 C         142.1674  134.2825  154.2568 C.ar    1  UNL1        0.1643
     32 O         142.2715  132.8431  153.8478 O.2     1  UNL1       -0.4384
     33 C         142.9882  129.8403  156.3363 C.3     1  UNL1        0.0102
     34 C         142.3617  130.5100  155.1494 C.3     1  UNL1        0.0853
@<TRIPOS>BOND
     1    33    34    1
     2    34    24    1
     3    24    25   ar
     4    25    26   ar
     5    26    27   ar
     6    27    28   ar
     7    28    23    1
     8    23     1    1
     9     1     2    1
    10     2     3    1
    11     3     4    1
    12     4     7    1
    13     7     8   am
    14     8     9    2
    15     8    11    1
    16    11    12   ar
    17    12    13   ar
    18    13    14    2
    19    13    15   ar
    20    15    16   ar
    21    16    17   ar
    22    17    18   ar
    23    18    19    1
    24    18    20   ar
    25    20    21   ar
    26    21    22   ar
    27     4     5    1
    28     5     6    1
    29    28    29   ar
    30    29    30   ar
    31    30    31   ar
    32    31    32   ar
    33    32    24   ar
    34    31    26   ar
    35     6     1    1
    36    22    11   ar
    37    21    15   ar
    38     7    10    1
@<TRIPOS>MOLECULE
*****
 34 38 0 0 0
SMALL
GASTEIGER

@<TRIPOS>ATOM
      1 N         143.2747  138.8430  158.8295 N.3     1  UNL1       -0.2689
      2 C         143.7263  140.1364  159.4403 C.3     1  UNL1        0.0741
      3 C         143.6952  140.3137  160.9296 C.3     1  UNL1        0.0369
      4 C         143.2125  139.1976  161.8078 C.3     1  UNL1        0.0747
      5 C         142.7609  137.9043  161.1969 C.3     1  UNL1        0.0369
      6 C         142.7920  137.7269  159.7078 C.3     1  UNL1        0.0741
      7 N         143.1814  139.3750  163.2969 N.am    1  UNL1       -0.2999
      8 C         142.0726  140.1571  163.9361 C.2     1  UNL1        0.2806
      9 O         140.9947  140.7620  163.0862 O.2     1  UNL1       -0.2668
     10 H         143.8889  138.9780  163.8548 H       1  UNL1        0.1498
     11 C         142.0415  140.3345  165.4253 C.ar    1  UNL1        0.2014
     12 C         142.6682  139.3035  166.3166 C.ar    1  UNL1        0.0843
     13 C         142.6372  139.4807  167.8057 C.ar    1  UNL1        0.2018
     14 O         143.2639  138.4497  168.6970 O.2     1  UNL1       -0.2864
     15 C         141.9795  140.6890  168.4037 C.ar    1  UNL1        0.0737
     16 C         141.9485  140.8663  169.8928 C.ar    1  UNL1        0.0085
     17 C         141.2907  142.0745  170.4907 C.ar    1  UNL1        0.0299
     18 C         140.6640  143.1055  169.5995 C.ar    1  UNL1        0.1432
     19 F         140.0063  144.3138  170.1974 F       1  UNL1       -0.2041
     20 C         140.6951  142.9282  168.1103 C.ar    1  UNL1        0.0672
     21 C         141.3528  141.7200  167.5124 C.ar    1  UNL1        0.1508
     22 O         141.3838  141.5427  166.0232 O.2     1  UNL1       -0.4486
     23 C         143.3058  138.6657  157.3403 C.3     1  UNL1        0.0992
     24 C         142.3798  132.8007  154.9948 C.ar    1  UNL1        0.2057
     25 N         143.4649  133.6184  155.6305 N.ar    1  UNL1       -0.2121
     26 C         142.9072  134.9794  155.9254 C.ar    1  UNL1        0.1183
     27 C         143.5166  136.2004  156.5482 C.ar    1  UNL1        0.0194
     28 C         142.6964  137.4447  156.7175 C.ar    1  UNL1       -0.0044
     29 C         141.2668  137.4681  156.2641 C.ar    1  UNL1        0.0003
     30 C         140.6574  136.2472  155.6413 C.ar    1  UNL1        0.0388
     31 C         141.4776  135.0028  155.4719 C.ar    1  UNL1        0.1643
     32 O         141.1517  133.6563  154.8969 O.2     1  UNL1       -0.4384
     33 C         143.8529  130.7977  154.2412 C.3     1  UNL1        0.0102
     34 C         142.5016  131.3773  154.5375 C.3     1  UNL1        0.0853
@<TRIPOS>BOND
     1    33    34    1
     2    34    24    1
     3    24    25   ar
     4    25    26   ar
     5    26    27   ar
     6    27    28   ar
     7    28    23    1
     8    23     1    1
     9     1     2    1
    10     2     3    1
    11     3     4    1
    12     4     7    1
    13     7     8   am
    14     8     9    2
    15     8    11    1
    16    11    12   ar
    17    12    13   ar
    18    13    14    2
    19    13    15   ar
    20    15    16   ar
    21    16    17   ar
    22    17    18   ar
    23    18    19    1
    24    18    20   ar
    25    20    21   ar
    26    21    22   ar
    27     4     5    1
    28     5     6    1
    29    28    29   ar
    30    29    30   ar
    31    30    31   ar
    32    31    32   ar
    33    32    24   ar
    34    31    26   ar
    35     6     1    1
    36    22    11   ar
    37    21    15   ar
    38     7    10    1
@<TRIPOS>MOLECULE
*****
 34 38 0 0 0
SMALL
GASTEIGER

@<TRIPOS>ATOM
      1 N         143.1845  141.0453  161.4176 N.3     1  UNL1       -0.2689
      2 C         144.0875  139.8562  161.5613 C.3     1  UNL1        0.0741
      3 C         143.8992  138.6601  160.6758 C.3     1  UNL1        0.0369
      4 C         142.8079  138.6532  159.6467 C.3     1  UNL1        0.0747
      5 C         141.9049  139.8423  159.5030 C.3     1  UNL1        0.0369
      6 C         142.0932  141.0384  160.3884 C.3     1  UNL1        0.0741
      7 N         142.6196  137.4572  158.7613 N.am    1  UNL1       -0.2999
      8 C         143.0902  137.4965  157.3375 C.2     1  UNL1        0.2806
      9 O         143.7490  138.7318  156.7992 O.2     1  UNL1       -0.2668
     10 H         142.1872  136.6464  159.1146 H       1  UNL1        0.1498
     11 C         142.9019  136.3004  156.4521 C.ar    1  UNL1        0.2014
     12 C         141.8946  136.3406  155.3414 C.ar    1  UNL1        0.0843
     13 C         141.7062  135.1446  154.4560 C.ar    1  UNL1        0.2018
     14 O         140.6989  135.1849  153.3452 O.2     1  UNL1       -0.2864
     15 C         142.5252  133.9082  154.6813 C.ar    1  UNL1        0.0737
     16 C         142.3369  132.7122  153.7959 C.ar    1  UNL1        0.0085
     17 C         143.1558  131.4759  154.0212 C.ar    1  UNL1        0.0299
     18 C         144.1631  131.4356  155.1320 C.ar    1  UNL1        0.1432
     19 F         144.9821  130.1992  155.3573 F       1  UNL1       -0.2041
     20 C         144.3514  132.6316  156.0174 C.ar    1  UNL1        0.0672
     21 C         143.5325  133.8679  155.7920 C.ar    1  UNL1        0.1508
     22 O         143.7208  135.0641  156.6775 O.2     1  UNL1       -0.4486
     23 C         143.3728  142.2414  162.3030 C.3     1  UNL1        0.0992
     24 C         140.7906  140.7458  167.9468 C.ar    1  UNL1        0.2057
     25 N         140.5829  140.4708  166.4869 N.ar    1  UNL1       -0.2121
     26 C         141.6409  141.2086  165.7211 C.ar    1  UNL1        0.1183
     27 C         141.9310  141.3092  164.2529 C.ar    1  UNL1        0.0194
     28 C         143.0827  142.1407  163.7712 C.ar    1  UNL1       -0.0044
     29 C         143.9443  142.8716  164.7578 C.ar    1  UNL1        0.0003
     30 C         143.6542  142.7710  166.2260 C.ar    1  UNL1        0.0388
     31 C         142.5025  141.9395  166.7077 C.ar    1  UNL1        0.1643
     32 O         141.9770  141.6534  168.0832 O.2     1  UNL1       -0.4384
     33 C         139.3699  141.1450  170.0851 C.3     1  UNL1        0.0102
     34 C         139.9582  140.2076  169.0726 C.3     1  UNL1        0.0853
@<TRIPOS>BOND
     1    33    34    1
     2    34    24    1
     3    24    25   ar
     4    25    26   ar
     5    26    27   ar
     6    27    28   ar
     7    28    23    1
     8    23     1    1
     9     1     2    1
    10     2     3    1
    11     3     4    1
    12     4     7    1
    13     7     8   am
    14     8     9    2
    15     8    11    1
    16    11    12   ar
    17    12    13   ar
    18    13    14    2
    19    13    15   ar
    20    15    16   ar
    21    16    17   ar
    22    17    18   ar
    23    18    19    1
    24    18    20   ar
    25    20    21   ar
    26    21    22   ar
    27     4     5    1
    28     5     6    1
    29    28    29   ar
    30    29    30   ar
    31    30    31   ar
    32    31    32   ar
    33    32    24   ar
    34    31    26   ar
    35     6     1    1
    36    22    11   ar
    37    21    15   ar
    38     7    10    1
@<TRIPOS>MOLECULE
*****
 34 38 0 0 0
SMALL
GASTEIGER

@<TRIPOS>ATOM
      1 N         144.1792  139.7058  162.2655 N.3     1  UNL1       -0.2689
      2 C         143.7422  140.7758  161.3094 C.3     1  UNL1        0.0741
      3 C         143.1128  140.4006  160.0005 C.3     1  UNL1        0.0369
      4 C         142.9204  138.9555  159.6477 C.3     1  UNL1        0.0747
      5 C         143.3574  137.8855  160.6038 C.3     1  UNL1        0.0369
      6 C         143.9868  138.2606  161.9127 C.3     1  UNL1        0.0741
      7 N         142.2910  138.5804  158.3389 N.am    1  UNL1       -0.2999
      8 C         140.8009  138.4426  158.2354 C.2     1  UNL1        0.2806
      9 O         139.9402  138.6800  159.4407 O.2     1  UNL1       -0.2668
     10 H         142.8559  138.4246  157.5478 H       1  UNL1        0.1498
     11 C         140.1716  138.0675  156.9264 C.ar    1  UNL1        0.2014
     12 C         140.7167  136.9158  156.1349 C.ar    1  UNL1        0.0843
     13 C         140.0874  136.5407  154.8260 C.ar    1  UNL1        0.2018
     14 O         140.6326  135.3891  154.0345 O.2     1  UNL1       -0.2864
     15 C         138.9129  137.3172  154.3086 C.ar    1  UNL1        0.0737
     16 C         138.2836  136.9420  152.9998 C.ar    1  UNL1        0.0085
     17 C         137.1091  137.7184  152.4824 C.ar    1  UNL1        0.0299
     18 C         136.5639  138.8701  153.2740 C.ar    1  UNL1        0.1432
     19 F         135.3894  139.6465  152.7566 F       1  UNL1       -0.2041
     20 C         137.1932  139.2452  154.5829 C.ar    1  UNL1        0.0672
     21 C         138.3677  138.4688  155.1002 C.ar    1  UNL1        0.1508
     22 O         138.9971  138.8439  156.4091 O.2     1  UNL1       -0.4486
     23 C         144.8085  140.0809  163.5743 C.3     1  UNL1        0.0992
     24 C         141.1389  141.6749  168.5493 C.ar    1  UNL1        0.2057
     25 N         141.7587  142.3069  167.3383 N.ar    1  UNL1       -0.2121
     26 C         142.5228  141.2467  166.6020 C.ar    1  UNL1        0.1183
     27 C         143.3339  141.2872  165.3408 C.ar    1  UNL1        0.0194
     28 C         143.9975  140.0404  164.8355 C.ar    1  UNL1       -0.0044
     29 C         143.8499  138.7533  165.5913 C.ar    1  UNL1        0.0003
     30 C         143.0389  138.7128  166.8525 C.ar    1  UNL1        0.0388
     31 C         142.3753  139.9595  167.3578 C.ar    1  UNL1        0.1643
     32 O         141.5200  140.2241  168.5613 O.2     1  UNL1       -0.4384
     33 C         140.4531  143.8433  169.8054 C.3     1  UNL1        0.0102
     34 C         140.2875  142.3713  169.5692 C.3     1  UNL1        0.0853
@<TRIPOS>BOND
     1    33    34    1
     2    34    24    1
     3    24    25   ar
     4    25    26   ar
     5    26    27   ar
     6    27    28   ar
     7    28    23    1
     8    23     1    1
     9     1     2    1
    10     2     3    1
    11     3     4    1
    12     4     7    1
    13     7     8   am
    14     8     9    2
    15     8    11    1
    16    11    12   ar
    17    12    13   ar
    18    13    14    2
    19    13    15   ar
    20    15    16   ar
    21    16    17   ar
    22    17    18   ar
    23    18    19    1
    24    18    20   ar
    25    20    21   ar
    26    21    22   ar
    27     4     5    1
    28     5     6    1
    29    28    29   ar
    30    29    30   ar
    31    30    31   ar
    32    31    32   ar
    33    32    24   ar
    34    31    26   ar
    35     6     1    1
    36    22    11   ar
    37    21    15   ar
    38     7    10    1
@<TRIPOS>MOLECULE
*****
 34 38 0 0 0
SMALL
GASTEIGER

@<TRIPOS>ATOM
      1 N         140.7709  141.9533  158.5653 N.3     1  UNL1       -0.2689
      2 C         140.9028  140.5961  159.1902 C.3     1  UNL1        0.0741
      3 C         141.1498  140.4699  160.6644 C.3     1  UNL1        0.0369
      4 C         141.2648  141.7009  161.5136 C.3     1  UNL1        0.0747
      5 C         141.1328  143.0582  160.8888 C.3     1  UNL1        0.0369
      6 C         140.8859  143.1844  159.4147 C.3     1  UNL1        0.0741
      7 N         141.5117  141.5747  162.9877 N.am    1  UNL1       -0.2999
      8 C         140.3653  141.3209  163.9212 C.2     1  UNL1        0.2806
      9 O         138.9720  141.1934  163.3806 O.2     1  UNL1       -0.2668
     10 H         142.4262  141.6584  163.3426 H       1  UNL1        0.1498
     11 C         140.6124  141.1947  165.3954 C.ar    1  UNL1        0.2014
     12 C         139.6344  140.4546  166.2590 C.ar    1  UNL1        0.0843
     13 C         139.8814  140.3283  167.7331 C.ar    1  UNL1        0.2018
     14 O         138.9034  139.5882  168.5968 O.2     1  UNL1       -0.2864
     15 C         141.1063  140.9422  168.3437 C.ar    1  UNL1        0.0737
     16 C         141.3533  140.8160  169.8178 C.ar    1  UNL1        0.0085
     17 C         142.5782  141.4299  170.4283 C.ar    1  UNL1        0.0299
     18 C         143.5561  142.1700  169.5646 C.ar    1  UNL1        0.1432
     19 F         144.7811  142.7839  170.1752 F       1  UNL1       -0.2041
     20 C         143.3092  142.2962  168.0905 C.ar    1  UNL1        0.0672
     21 C         142.0843  141.6824  167.4801 C.ar    1  UNL1        0.1508
     22 O         141.8373  141.8086  166.0059 O.2     1  UNL1       -0.4486
     23 C         140.5239  142.0796  157.0912 C.3     1  UNL1        0.0992
     24 C         134.3832  140.6752  156.0539 C.ar    1  UNL1        0.2057
     25 N         135.5264  140.2306  156.9172 N.ar    1  UNL1       -0.2121
     26 C         136.7194  141.0740  156.5771 C.ar    1  UNL1        0.1183
     27 C         138.1229  141.0873  157.1063 C.ar    1  UNL1        0.0194
     28 C         139.1204  142.0663  156.5620 C.ar    1  UNL1       -0.0044
     29 C         138.7145  143.0321  155.4885 C.ar    1  UNL1        0.0003
     30 C         137.3110  143.0188  154.9594 C.ar    1  UNL1        0.0388
     31 C         136.3134  142.0398  155.5037 C.ar    1  UNL1        0.1643
     32 O         134.8696  141.7933  155.1803 O.2     1  UNL1       -0.4384
     33 C         132.7560  138.7300  156.6182 C.3     1  UNL1        0.0102
     34 C         132.9969  140.1023  156.0626 C.3     1  UNL1        0.0853
@<TRIPOS>BOND
     1    33    34    1
     2    34    24    1
     3    24    25   ar
     4    25    26   ar
     5    26    27   ar
     6    27    28   ar
     7    28    23    1
     8    23     1    1
     9     1     2    1
    10     2     3    1
    11     3     4    1
    12     4     7    1
    13     7     8   am
    14     8     9    2
    15     8    11    1
    16    11    12   ar
    17    12    13   ar
    18    13    14    2
    19    13    15   ar
    20    15    16   ar
    21    16    17   ar
    22    17    18   ar
    23    18    19    1
    24    18    20   ar
    25    20    21   ar
    26    21    22   ar
    27     4     5    1
    28     5     6    1
    29    28    29   ar
    30    29    30   ar
    31    30    31   ar
    32    31    32   ar
    33    32    24   ar
    34    31    26   ar
    35     6     1    1
    36    22    11   ar
    37    21    15   ar
    38     7    10    1
