@<TRIPOS>MOLECULE
*****
 35 38 0 0 0
SMALL
GASTEIGER

@<TRIPOS>ATOM
      1 C         139.3345  138.1885  164.0248 C.ar    1  UNL1        0.1534
      2 C         138.4887  138.1386  165.2626 C.ar    1  UNL1        0.0591
      3 C         138.9094  138.8923  166.4893 C.ar    1  UNL1        0.1072
      4 N         138.0635  138.8424  167.7271 N.ar    1  UNL1       -0.1477
      5 N         138.4842  139.5962  168.9538 N.ar    1  UNL1       -0.1421
      6 C         139.7507  140.3998  168.9428 C.ar    1  UNL1        0.1690
      7 C         140.5965  140.4497  167.7050 C.ar    1  UNL1        0.0740
      8 C         140.1758  139.6960  166.4783 C.ar    1  UNL1        0.0359
      9 C         141.0216  139.7458  165.2405 C.ar    1  UNL1        0.0204
     10 C         140.6009  138.9921  164.0138 C.ar    1  UNL1        0.0824
     11 N         141.4468  139.0420  162.7760 N.pl3   1  UNL1       -0.3050
     12 C         142.5547  138.0492  162.5842 C.3     1  UNL1        0.0934
     13 C         143.4006  138.0990  161.3465 C.3     1  UNL1        0.0510
     14 C         143.1385  139.1418  160.3004 C.3     1  UNL1        0.1188
     15 C         142.0306  140.1346  160.4922 C.3     1  UNL1        0.0510
     16 C         141.1847  140.0847  161.7300 C.3     1  UNL1        0.0934
     17 O         143.9844  139.1916  159.0627 O.3     1  UNL1       -0.3535
     18 C         144.0197  140.4375  158.2281 C.3     1  UNL1        0.1740
     19 C         140.1714  141.1536  170.1695 C.2     1  UNL1        0.2635
     20 N         140.4015  140.4207  171.4580 N.am    1  UNL1       -0.3240
     21 O         140.3620  142.6401  170.1079 O.2     1  UNL1       -0.2686
     22 H         140.2765  139.4450  171.4984 H       1  UNL1        0.1453
     23 H         140.6777  140.9154  172.2631 H       1  UNL1        0.1453
     24 C         137.9986  138.0787  161.7992 C.3     1  UNL1        0.2525
     25 O         138.9138  137.4347  162.7980 O.3     1  UNL1       -0.4701
     26 N         141.8630  141.2533  167.6940 N.pl3   1  UNL1       -0.3094
     27 H         142.4940  141.1879  168.4468 H       1  UNL1        0.1523
     28 C         142.1681  142.1566  166.5359 C.ar    1  UNL1        0.0761
     29 C         143.5525  142.1960  165.9599 C.ar    1  UNL1        0.0166
     30 C         143.8576  143.0992  164.8019 C.ar    1  UNL1       -0.0028
     31 C         142.7783  143.9631  164.2198 C.ar    1  UNL1       -0.0195
     32 C         143.0834  144.8663  163.0618 C.3     1  UNL1        0.0311
     33 C         141.3938  143.9237  164.7958 C.ar    1  UNL1        0.0267
     34 C         141.0888  143.0204  165.9539 C.ar    1  UNL1        0.1531
     35 F         139.7043  142.9811  166.5299 F       1  UNL1       -0.2029
@<TRIPOS>BOND
     1    24    25    1
     2    25     1    1
     3     1     2   ar
     4     2     3   ar
     5     3     4   ar
     6     4     5   ar
     7     5     6   ar
     8     6    19    1
     9    19    20   am
    10    19    21    2
    11     6     7   ar
    12     7    26    1
    13    26    28    1
    14    28    29   ar
    15    29    30   ar
    16    30    31   ar
    17    31    32    1
    18    31    33   ar
    19    33    34   ar
    20    34    35    1
    21     7     8   ar
    22     8     9   ar
    23     9    10   ar
    24    10    11    1
    25    11    12    1
    26    12    13    1
    27    13    14    1
    28    14    17    1
    29    17    18    1
    30    14    15    1
    31    15    16    1
    32    10     1   ar
    33    16    11    1
    34     8     3   ar
    35    34    28   ar
    36    20    22    1
    37    20    23    1
    38    26    27    1
@<TRIPOS>MOLECULE
*****
 35 38 0 0 0
SMALL
GASTEIGER

@<TRIPOS>ATOM
      1 C         138.2187  141.2278  162.9106 C.ar    1  UNL1        0.1534
      2 C         137.6434  140.3119  163.9499 C.ar    1  UNL1        0.0591
      3 C         138.2983  140.1982  165.2946 C.ar    1  UNL1        0.1072
      4 N         137.7230  139.2823  166.3340 N.ar    1  UNL1       -0.1477
      5 N         138.3779  139.1686  167.6787 N.ar    1  UNL1       -0.1421
      6 C         139.6081  139.9708  167.9840 C.ar    1  UNL1        0.1690
      7 C         140.1834  140.8867  166.9447 C.ar    1  UNL1        0.0740
      8 C         139.5285  141.0004  165.6000 C.ar    1  UNL1        0.0359
      9 C         140.1037  141.9162  164.5606 C.ar    1  UNL1        0.0204
     10 C         139.4488  142.0299  163.2160 C.ar    1  UNL1        0.0824
     11 N         140.0241  142.9459  162.1766 N.pl3   1  UNL1       -0.3050
     12 C         139.6435  144.3967  162.1621 C.3     1  UNL1        0.0934
     13 C         140.2188  145.3126  161.1228 C.3     1  UNL1        0.0510
     14 C         141.1746  144.7777  160.0979 C.3     1  UNL1        0.1188
     15 C         141.5552  143.3268  160.1125 C.3     1  UNL1        0.0510
     16 C         140.9799  142.4109  161.1518 C.3     1  UNL1        0.0934
     17 O         141.7499  145.6936  159.0587 O.3     1  UNL1       -0.3535
     18 C         141.1084  145.7901  157.7062 C.3     1  UNL1        0.1740
     19 C         140.2630  139.8571  169.3287 C.2     1  UNL1        0.2635
     20 N         139.4321  139.9245  170.5757 N.am    1  UNL1       -0.3240
     21 O         141.7488  139.6760  169.4264 O.2     1  UNL1       -0.2686
     22 H         138.4569  140.0434  170.5116 H       1  UNL1        0.1453
     23 H         139.8619  139.8499  171.4583 H       1  UNL1        0.1453
     24 C         137.8404  140.3150  160.5078 C.3     1  UNL1        0.2525
     25 O         137.5638  141.3415  161.5659 O.3     1  UNL1       -0.4701
     26 N         141.4135  141.6888  167.2500 N.pl3   1  UNL1       -0.3094
     27 H         141.4620  142.2199  168.0775 H       1  UNL1        0.1523
     28 C         142.5698  141.6817  166.2945 C.ar    1  UNL1        0.0761
     29 C         143.1993  142.9752  165.8693 C.ar    1  UNL1        0.0166
     30 C         144.3556  142.9682  164.9139 C.ar    1  UNL1       -0.0028
     31 C         144.8825  141.6677  164.3835 C.ar    1  UNL1       -0.0195
     32 C         146.0387  141.6607  163.4281 C.3     1  UNL1        0.0311
     33 C         144.2530  140.3742  164.8087 C.ar    1  UNL1        0.0267
     34 C         143.0967  140.3813  165.7642 C.ar    1  UNL1        0.1531
     35 F         142.4672  139.0878  166.1894 F       1  UNL1       -0.2029
@<TRIPOS>BOND
     1    24    25    1
     2    25     1    1
     3     1     2   ar
     4     2     3   ar
     5     3     4   ar
     6     4     5   ar
     7     5     6   ar
     8     6    19    1
     9    19    20   am
    10    19    21    2
    11     6     7   ar
    12     7    26    1
    13    26    28    1
    14    28    29   ar
    15    29    30   ar
    16    30    31   ar
    17    31    32    1
    18    31    33   ar
    19    33    34   ar
    20    34    35    1
    21     7     8   ar
    22     8     9   ar
    23     9    10   ar
    24    10    11    1
    25    11    12    1
    26    12    13    1
    27    13    14    1
    28    14    17    1
    29    17    18    1
    30    14    15    1
    31    15    16    1
    32    10     1   ar
    33    16    11    1
    34     8     3   ar
    35    34    28   ar
    36    20    22    1
    37    20    23    1
    38    26    27    1
@<TRIPOS>MOLECULE
*****
 35 38 0 0 0
SMALL
GASTEIGER

@<TRIPOS>ATOM
      1 C         143.8839  142.0623  164.4929 C.ar    1  UNL1        0.1534
      2 C         143.7743  142.5902  165.8926 C.ar    1  UNL1        0.0591
      3 C         142.7845  141.9887  166.8457 C.ar    1  UNL1        0.1072
      4 N         142.6750  142.5167  168.2455 N.ar    1  UNL1       -0.1477
      5 N         141.6851  141.9152  169.1986 N.ar    1  UNL1       -0.1421
      6 C         140.8048  140.7858  168.7519 C.ar    1  UNL1        0.1690
      7 C         140.9143  140.2579  167.3522 C.ar    1  UNL1        0.0740
      8 C         141.9041  140.8594  166.3991 C.ar    1  UNL1        0.0359
      9 C         142.0136  140.3315  164.9993 C.ar    1  UNL1        0.0204
     10 C         143.0035  140.9330  164.0462 C.ar    1  UNL1        0.0824
     11 N         143.1130  140.4051  162.6464 N.pl3   1  UNL1       -0.3050
     12 C         144.0670  139.2894  162.3381 C.3     1  UNL1        0.0934
     13 C         144.1765  138.7614  160.9384 C.3     1  UNL1        0.0510
     14 C         143.3320  139.3492  159.8469 C.3     1  UNL1        0.1188
     15 C         142.3780  140.4649  160.1552 C.3     1  UNL1        0.0510
     16 C         142.2685  140.9929  161.5550 C.3     1  UNL1        0.0934
     17 O         143.4415  138.8213  158.4472 O.3     1  UNL1       -0.3535
     18 C         142.6431  137.6205  158.0339 C.3     1  UNL1        0.1740
     19 C         139.8149  140.1843  169.7050 C.2     1  UNL1        0.2635
     20 N         140.1508  140.0708  171.1626 N.am    1  UNL1       -0.3240
     21 O         138.4892  139.6964  169.2006 O.2     1  UNL1       -0.2686
     22 H         141.0209  140.3910  171.4936 H       1  UNL1        0.1453
     23 H         139.5011  139.6760  171.7881 H       1  UNL1        0.1453
     24 C         144.4593  143.7898  162.6396 C.3     1  UNL1        0.2525
     25 O         144.8737  142.6638  163.5398 O.3     1  UNL1       -0.4701
     26 N         140.0339  139.1286  166.9055 N.pl3   1  UNL1       -0.3094
     27 H         139.8614  138.3704  167.5094 H       1  UNL1        0.1523
     28 C         139.4164  139.1543  165.5387 C.ar    1  UNL1        0.0761
     29 C         138.5140  140.2859  165.1447 C.ar    1  UNL1        0.0166
     30 C         137.8965  140.3117  163.7779 C.ar    1  UNL1       -0.0028
     31 C         138.1813  139.2059  162.8052 C.ar    1  UNL1       -0.0195
     32 C         137.5638  139.2317  161.4385 C.3     1  UNL1        0.0311
     33 C         139.0837  138.0743  163.1993 C.ar    1  UNL1        0.0267
     34 C         139.7013  138.0486  164.5661 C.ar    1  UNL1        0.1531
     35 F         140.6036  136.9170  164.9602 F       1  UNL1       -0.2029
@<TRIPOS>BOND
     1    24    25    1
     2    25     1    1
     3     1     2   ar
     4     2     3   ar
     5     3     4   ar
     6     4     5   ar
     7     5     6   ar
     8     6    19    1
     9    19    20   am
    10    19    21    2
    11     6     7   ar
    12     7    26    1
    13    26    28    1
    14    28    29   ar
    15    29    30   ar
    16    30    31   ar
    17    31    32    1
    18    31    33   ar
    19    33    34   ar
    20    34    35    1
    21     7     8   ar
    22     8     9   ar
    23     9    10   ar
    24    10    11    1
    25    11    12    1
    26    12    13    1
    27    13    14    1
    28    14    17    1
    29    17    18    1
    30    14    15    1
    31    15    16    1
    32    10     1   ar
    33    16    11    1
    34     8     3   ar
    35    34    28   ar
    36    20    22    1
    37    20    23    1
    38    26    27    1
@<TRIPOS>MOLECULE
*****
 35 38 0 0 0
SMALL
GASTEIGER

@<TRIPOS>ATOM
      1 C         139.4395  138.1635  162.7183 C.ar    1  UNL1        0.1534
      2 C         139.3429  137.9562  161.2359 C.ar    1  UNL1        0.0591
      3 C         139.0236  139.1131  160.3360 C.ar    1  UNL1        0.1072
      4 N         138.9270  138.9058  158.8535 N.ar    1  UNL1       -0.1477
      5 N         138.6077  140.0626  157.9537 N.ar    1  UNL1       -0.1421
      6 C         138.3850  141.4268  158.5363 C.ar    1  UNL1        0.1690
      7 C         138.4816  141.6341  160.0188 C.ar    1  UNL1        0.0740
      8 C         138.8009  140.4772  160.9186 C.ar    1  UNL1        0.0359
      9 C         138.8975  140.6845  162.4011 C.ar    1  UNL1        0.0204
     10 C         139.2168  139.5277  163.3009 C.ar    1  UNL1        0.0824
     11 N         139.3133  139.7350  164.7834 N.pl3   1  UNL1       -0.3050
     12 C         138.3138  139.0906  165.6975 C.3     1  UNL1        0.0934
     13 C         138.4103  139.2979  167.1799 C.3     1  UNL1        0.0510
     14 C         139.5065  140.1496  167.7484 C.3     1  UNL1        0.1188
     15 C         140.5061  140.7940  166.8343 C.3     1  UNL1        0.0510
     16 C         140.4095  140.5867  165.3518 C.3     1  UNL1        0.0934
     17 O         139.6030  140.3569  169.2308 O.3     1  UNL1       -0.3535
     18 C         140.8081  139.8696  169.9793 C.3     1  UNL1        0.1740
     19 C         138.0657  142.5837  157.6365 C.2     1  UNL1        0.2635
     20 N         136.8260  142.5574  156.7923 N.am    1  UNL1       -0.3240
     21 O         138.9861  143.7668  157.5808 O.2     1  UNL1       -0.2686
     22 H         136.2220  141.7808  156.8289 H       1  UNL1        0.1453
     23 H         136.6165  143.3167  156.2017 H       1  UNL1        0.1453
     24 C         141.1298  136.8745  164.2121 C.3     1  UNL1        0.2525
     25 O         139.7588  137.0066  163.6181 O.3     1  UNL1       -0.4701
     26 N         138.2589  142.9983  160.6014 N.pl3   1  UNL1       -0.3094
     27 H         137.4078  143.4676  160.4444 H       1  UNL1        0.1523
     28 C         139.3329  143.6474  161.4231 C.ar    1  UNL1        0.0761
     29 C         140.7545  143.6344  160.9444 C.ar    1  UNL1        0.0166
     30 C         141.8285  144.2834  161.7661 C.ar    1  UNL1       -0.0028
     31 C         141.4810  144.9456  163.0665 C.ar    1  UNL1       -0.0195
     32 C         142.5550  145.5946  163.8881 C.3     1  UNL1        0.0311
     33 C         140.0595  144.9586  163.5451 C.ar    1  UNL1        0.0267
     34 C         138.9854  144.3095  162.7234 C.ar    1  UNL1        0.1531
     35 F         137.5639  144.3225  163.2021 F       1  UNL1       -0.2029
@<TRIPOS>BOND
     1    24    25    1
     2    25     1    1
     3     1     2   ar
     4     2     3   ar
     5     3     4   ar
     6     4     5   ar
     7     5     6   ar
     8     6    19    1
     9    19    20   am
    10    19    21    2
    11     6     7   ar
    12     7    26    1
    13    26    28    1
    14    28    29   ar
    15    29    30   ar
    16    30    31   ar
    17    31    32    1
    18    31    33   ar
    19    33    34   ar
    20    34    35    1
    21     7     8   ar
    22     8     9   ar
    23     9    10   ar
    24    10    11    1
    25    11    12    1
    26    12    13    1
    27    13    14    1
    28    14    17    1
    29    17    18    1
    30    14    15    1
    31    15    16    1
    32    10     1   ar
    33    16    11    1
    34     8     3   ar
    35    34    28   ar
    36    20    22    1
    37    20    23    1
    38    26    27    1
@<TRIPOS>MOLECULE
*****
 35 38 0 0 0
SMALL
GASTEIGER

@<TRIPOS>ATOM
      1 C         138.5891  140.7875  162.2765 C.ar    1  UNL1        0.1534
      2 C         138.1290  141.2221  160.9166 C.ar    1  UNL1        0.0591
      3 C         138.8209  142.3544  160.2172 C.ar    1  UNL1        0.1072
      4 N         138.3607  142.7890  158.8572 N.ar    1  UNL1       -0.1477
      5 N         139.0526  143.9213  158.1577 N.ar    1  UNL1       -0.1421
      6 C         140.2046  144.6190  158.8183 C.ar    1  UNL1        0.1690
      7 C         140.6647  144.1843  160.1782 C.ar    1  UNL1        0.0740
      8 C         139.9728  143.0520  160.8776 C.ar    1  UNL1        0.0359
      9 C         140.4329  142.6174  162.2375 C.ar    1  UNL1        0.0204
     10 C         139.7410  141.4851  162.9370 C.ar    1  UNL1        0.0824
     11 N         140.2012  141.0505  164.2969 N.pl3   1  UNL1       -0.3050
     12 C         139.4925  141.5464  165.5224 C.3     1  UNL1        0.0934
     13 C         139.9526  141.1118  166.8823 C.3     1  UNL1        0.0510
     14 C         141.1214  140.1813  167.0168 C.3     1  UNL1        0.1188
     15 C         141.8301  139.6854  165.7913 C.3     1  UNL1        0.0510
     16 C         141.3700  140.1200  164.4313 C.3     1  UNL1        0.0934
     17 O         141.5815  139.7467  168.3767 O.3     1  UNL1       -0.3535
     18 C         142.5204  140.6128  169.1631 C.3     1  UNL1        0.1740
     19 C         140.8965  145.7512  158.1188 C.2     1  UNL1        0.2635
     20 N         140.1082  146.6977  157.2627 N.am    1  UNL1       -0.3240
     21 O         142.3767  145.9371  158.2754 O.2     1  UNL1       -0.2686
     22 H         139.1367  146.5757  157.1599 H       1  UNL1        0.1453
     23 H         140.5623  147.4409  156.8036 H       1  UNL1        0.1453
     24 C         138.3946  138.2507  162.8028 C.3     1  UNL1        0.2525
     25 O         137.8972  139.6552  162.9760 O.3     1  UNL1       -0.4701
     26 N         141.8167  144.8820  160.8386 N.pl3   1  UNL1       -0.3094
     27 H         141.8877  145.8630  160.7964 H       1  UNL1        0.1523
     28 C         142.8605  144.0849  161.5633 C.ar    1  UNL1        0.0761
     29 C         143.6170  143.0088  160.8425 C.ar    1  UNL1        0.0166
     30 C         144.6608  142.2117  161.5671 C.ar    1  UNL1       -0.0028
     31 C         144.9481  142.4907  163.0127 C.ar    1  UNL1       -0.0195
     32 C         145.9919  141.6937  163.7374 C.3     1  UNL1        0.0311
     33 C         144.1916  143.5669  163.7336 C.ar    1  UNL1        0.0267
     34 C         143.1478  144.3639  163.0089 C.ar    1  UNL1        0.1531
     35 F         142.3912  145.4401  163.7297 F       1  UNL1       -0.2029
@<TRIPOS>BOND
     1    24    25    1
     2    25     1    1
     3     1     2   ar
     4     2     3   ar
     5     3     4   ar
     6     4     5   ar
     7     5     6   ar
     8     6    19    1
     9    19    20   am
    10    19    21    2
    11     6     7   ar
    12     7    26    1
    13    26    28    1
    14    28    29   ar
    15    29    30   ar
    16    30    31   ar
    17    31    32    1
    18    31    33   ar
    19    33    34   ar
    20    34    35    1
    21     7     8   ar
    22     8     9   ar
    23     9    10   ar
    24    10    11    1
    25    11    12    1
    26    12    13    1
    27    13    14    1
    28    14    17    1
    29    17    18    1
    30    14    15    1
    31    15    16    1
    32    10     1   ar
    33    16    11    1
    34     8     3   ar
    35    34    28   ar
    36    20    22    1
    37    20    23    1
    38    26    27    1
@<TRIPOS>MOLECULE
*****
 35 38 0 0 0
SMALL
GASTEIGER

@<TRIPOS>ATOM
      1 C         139.0094  143.3224  163.8856 C.ar    1  UNL1        0.1534
      2 C         139.3415  143.7357  165.2888 C.ar    1  UNL1        0.0591
      3 C         139.9381  142.7428  166.2418 C.ar    1  UNL1        0.1072
      4 N         140.2702  143.1562  167.6450 N.ar    1  UNL1       -0.1477
      5 N         140.8669  142.1633  168.5980 N.ar    1  UNL1       -0.1421
      6 C         141.1315  140.7571  168.1478 C.ar    1  UNL1        0.1690
      7 C         140.7994  140.3438  166.7446 C.ar    1  UNL1        0.0740
      8 C         140.2027  141.3367  165.7916 C.ar    1  UNL1        0.0359
      9 C         139.8707  140.9234  164.3885 C.ar    1  UNL1        0.0204
     10 C         139.2740  141.9163  163.4355 C.ar    1  UNL1        0.0824
     11 N         138.9420  141.5029  162.0322 N.pl3   1  UNL1       -0.3050
     12 C         137.8062  140.5567  161.7780 C.3     1  UNL1        0.0934
     13 C         137.4741  140.1433  160.3749 C.3     1  UNL1        0.0510
     14 C         138.2778  140.6762  159.2259 C.3     1  UNL1        0.1188
     15 C         139.4136  141.6224  159.4801 C.3     1  UNL1        0.0510
     16 C         139.7457  142.0358  160.8833 C.3     1  UNL1        0.0934
     17 O         137.9457  140.2628  157.8228 O.3     1  UNL1       -0.3535
     18 C         136.9623  141.0605  157.0187 C.3     1  UNL1        0.1740
     19 C         141.7281  139.7642  169.1008 C.2     1  UNL1        0.2635
     20 N         141.0191  139.4336  170.3807 N.am    1  UNL1       -0.3240
     21 O         143.0337  139.1020  168.7739 O.2     1  UNL1       -0.2686
     22 H         140.1622  139.8682  170.5952 H       1  UNL1        0.1453
     23 H         141.4107  138.7820  171.0062 H       1  UNL1        0.1453
     24 C         139.2535  145.4327  162.3899 C.3     1  UNL1        0.2525
     25 O         138.4127  144.3153  162.9326 O.3     1  UNL1       -0.4701
     26 N         141.0640  138.9377  166.2945 N.pl3   1  UNL1       -0.3094
     27 H         140.7550  138.1794  166.8411 H       1  UNL1        0.1523
     28 C         141.7995  138.6867  165.0114 C.ar    1  UNL1        0.0761
     29 C         143.1733  139.2547  164.8110 C.ar    1  UNL1        0.0166
     30 C         143.9088  139.0038  163.5280 C.ar    1  UNL1       -0.0028
     31 C         143.2705  138.1849  162.4453 C.ar    1  UNL1       -0.0195
     32 C         144.0059  137.9340  161.1624 C.3     1  UNL1        0.0311
     33 C         141.8967  137.6170  162.6457 C.ar    1  UNL1        0.0267
     34 C         141.1612  137.8679  163.9288 C.ar    1  UNL1        0.1531
     35 F         139.7874  137.3000  164.1292 F       1  UNL1       -0.2029
@<TRIPOS>BOND
     1    24    25    1
     2    25     1    1
     3     1     2   ar
     4     2     3   ar
     5     3     4   ar
     6     4     5   ar
     7     5     6   ar
     8     6    19    1
     9    19    20   am
    10    19    21    2
    11     6     7   ar
    12     7    26    1
    13    26    28    1
    14    28    29   ar
    15    29    30   ar
    16    30    31   ar
    17    31    32    1
    18    31    33   ar
    19    33    34   ar
    20    34    35    1
    21     7     8   ar
    22     8     9   ar
    23     9    10   ar
    24    10    11    1
    25    11    12    1
    26    12    13    1
    27    13    14    1
    28    14    17    1
    29    17    18    1
    30    14    15    1
    31    15    16    1
    32    10     1   ar
    33    16    11    1
    34     8     3   ar
    35    34    28   ar
    36    20    22    1
    37    20    23    1
    38    26    27    1
@<TRIPOS>MOLECULE
*****
 35 38 0 0 0
SMALL
GASTEIGER

@<TRIPOS>ATOM
      1 C         144.0989  139.7071  162.8099 C.ar    1  UNL1        0.1534
      2 C         144.3151  139.4155  161.3545 C.ar    1  UNL1        0.0591
      3 C         143.1387  139.1816  160.4537 C.ar    1  UNL1        0.1072
      4 N         143.3549  138.8899  158.9982 N.ar    1  UNL1       -0.1477
      5 N         142.1786  138.6560  158.0974 N.ar    1  UNL1       -0.1421
      6 C         140.7860  138.7137  158.6520 C.ar    1  UNL1        0.1690
      7 C         140.5699  139.0053  160.1074 C.ar    1  UNL1        0.0740
      8 C         141.7462  139.2392  161.0083 C.ar    1  UNL1        0.0359
      9 C         141.5301  139.5308  162.4637 C.ar    1  UNL1        0.0204
     10 C         142.7064  139.7647  163.3645 C.ar    1  UNL1        0.0824
     11 N         142.4902  140.0563  164.8199 N.pl3   1  UNL1       -0.3050
     12 C         141.9374  141.3845  165.2447 C.3     1  UNL1        0.0934
     13 C         141.7212  141.6761  166.7000 C.3     1  UNL1        0.0510
     14 C         142.0578  140.6396  167.7308 C.3     1  UNL1        0.1188
     15 C         142.6107  139.3114  167.3060 C.3     1  UNL1        0.0510
     16 C         142.8269  139.0198  165.8506 C.3     1  UNL1        0.0934
     17 O         141.8416  140.9312  169.1861 O.3     1  UNL1       -0.3535
     18 C         140.8422  140.1338  169.9705 C.3     1  UNL1        0.1740
     19 C         139.6096  138.4798  157.7512 C.2     1  UNL1        0.2635
     20 N         139.5266  137.2225  156.9373 N.am    1  UNL1       -0.3240
     21 O         138.5164  139.5031  157.6643 O.2     1  UNL1       -0.2686
     22 H         140.2441  136.5509  156.9944 H       1  UNL1        0.1453
     23 H         138.7545  137.0690  156.3461 H       1  UNL1        0.1453
     24 C         145.7975  141.3320  163.9165 C.3     1  UNL1        0.2525
     25 O         145.2753  139.9410  163.7107 O.3     1  UNL1       -0.4701
     26 N         139.1774  139.0630  160.6620 N.pl3   1  UNL1       -0.3094
     27 H         138.5656  138.3019  160.5364 H       1  UNL1        0.1523
     28 C         138.7169  140.2803  161.4079 C.ar    1  UNL1        0.0761
     29 C         138.7964  141.6311  160.7607 C.ar    1  UNL1        0.0166
     30 C         138.3360  142.8484  161.5066 C.ar    1  UNL1       -0.0028
     31 C         137.7961  142.7148  162.8997 C.ar    1  UNL1       -0.0195
     32 C         137.3357  143.9320  163.6455 C.3     1  UNL1        0.0311
     33 C         137.7166  141.3639  163.5469 C.ar    1  UNL1        0.0267
     34 C         138.1770  140.1467  162.8010 C.ar    1  UNL1        0.1531
     35 F         138.0976  138.7958  163.4482 F       1  UNL1       -0.2029
@<TRIPOS>BOND
     1    24    25    1
     2    25     1    1
     3     1     2   ar
     4     2     3   ar
     5     3     4   ar
     6     4     5   ar
     7     5     6   ar
     8     6    19    1
     9    19    20   am
    10    19    21    2
    11     6     7   ar
    12     7    26    1
    13    26    28    1
    14    28    29   ar
    15    29    30   ar
    16    30    31   ar
    17    31    32    1
    18    31    33   ar
    19    33    34   ar
    20    34    35    1
    21     7     8   ar
    22     8     9   ar
    23     9    10   ar
    24    10    11    1
    25    11    12    1
    26    12    13    1
    27    13    14    1
    28    14    17    1
    29    17    18    1
    30    14    15    1
    31    15    16    1
    32    10     1   ar
    33    16    11    1
    34     8     3   ar
    35    34    28   ar
    36    20    22    1
    37    20    23    1
    38    26    27    1
@<TRIPOS>MOLECULE
*****
 35 38 0 0 0
SMALL
GASTEIGER

@<TRIPOS>ATOM
      1 C         139.8656  143.5334  162.6834 C.ar    1  UNL1        0.1534
      2 C         140.3930  144.3355  161.5309 C.ar    1  UNL1        0.0591
      3 C         141.4930  143.7831  160.6737 C.ar    1  UNL1        0.1072
      4 N         142.0204  144.5852  159.5211 N.ar    1  UNL1       -0.1477
      5 N         143.1205  144.0328  158.6639 N.ar    1  UNL1       -0.1421
      6 C         143.6931  142.6782  158.9594 C.ar    1  UNL1        0.1690
      7 C         143.1657  141.8761  160.1119 C.ar    1  UNL1        0.0740
      8 C         142.0657  142.4285  160.9691 C.ar    1  UNL1        0.0359
      9 C         141.5383  141.6265  162.1217 C.ar    1  UNL1        0.0204
     10 C         140.4382  142.1789  162.9788 C.ar    1  UNL1        0.0824
     11 N         139.9108  141.3767  164.1314 N.pl3   1  UNL1       -0.3050
     12 C         140.6534  141.3586  165.4346 C.3     1  UNL1        0.0934
     13 C         140.1260  140.5565  166.5872 C.3     1  UNL1        0.0510
     14 C         138.8561  139.7724  166.4366 C.3     1  UNL1        0.1188
     15 C         138.1135  139.7906  165.1335 C.3     1  UNL1        0.0510
     16 C         138.6409  140.5928  163.9808 C.3     1  UNL1        0.0934
     17 O         138.3287  138.9703  167.5892 O.3     1  UNL1       -0.3535
     18 C         137.2179  137.9860  167.3720 C.3     1  UNL1        0.1740
     19 C         144.7932  142.1258  158.1022 C.2     1  UNL1        0.2635
     20 N         146.0050  142.9593  157.8078 N.am    1  UNL1       -0.3240
     21 O         144.6813  140.7399  157.5395 O.2     1  UNL1       -0.2686
     22 H         146.0784  143.8689  158.1772 H       1  UNL1        0.1453
     23 H         146.7270  142.5967  157.2452 H       1  UNL1        0.1453
     24 C         139.0973  144.8177  164.8072 C.3     1  UNL1        0.2525
     25 O         138.7656  144.0859  163.5406 O.3     1  UNL1       -0.4701
     26 N         143.7383  140.5216  160.4073 N.pl3   1  UNL1       -0.3094
     27 H         144.0935  139.9670  159.6755 H       1  UNL1        0.1523
     28 C         143.7698  140.0119  161.8178 C.ar    1  UNL1        0.0761
     29 C         142.8607  138.8928  162.2313 C.ar    1  UNL1        0.0166
     30 C         142.8921  138.3831  163.6417 C.ar    1  UNL1       -0.0028
     31 C         143.8328  138.9926  164.6386 C.ar    1  UNL1       -0.0195
     32 C         143.8642  138.4829  166.0490 C.3     1  UNL1        0.0311
     33 C         144.7419  140.1117  164.2251 C.ar    1  UNL1        0.0267
     34 C         144.7104  140.6214  162.8147 C.ar    1  UNL1        0.1531
     35 F         145.6196  141.7405  162.4012 F       1  UNL1       -0.2029
@<TRIPOS>BOND
     1    24    25    1
     2    25     1    1
     3     1     2   ar
     4     2     3   ar
     5     3     4   ar
     6     4     5   ar
     7     5     6   ar
     8     6    19    1
     9    19    20   am
    10    19    21    2
    11     6     7   ar
    12     7    26    1
    13    26    28    1
    14    28    29   ar
    15    29    30   ar
    16    30    31   ar
    17    31    32    1
    18    31    33   ar
    19    33    34   ar
    20    34    35    1
    21     7     8   ar
    22     8     9   ar
    23     9    10   ar
    24    10    11    1
    25    11    12    1
    26    12    13    1
    27    13    14    1
    28    14    17    1
    29    17    18    1
    30    14    15    1
    31    15    16    1
    32    10     1   ar
    33    16    11    1
    34     8     3   ar
    35    34    28   ar
    36    20    22    1
    37    20    23    1
    38    26    27    1
@<TRIPOS>MOLECULE
*****
 35 38 0 0 0
SMALL
GASTEIGER

@<TRIPOS>ATOM
      1 C         142.8748  139.5949  162.9980 C.ar    1  UNL1        0.1534
      2 C         143.8303  139.9996  161.9149 C.ar    1  UNL1        0.0591
      3 C         143.4729  141.1148  160.9775 C.ar    1  UNL1        0.1072
      4 N         144.4285  141.5195  159.8944 N.ar    1  UNL1       -0.1477
      5 N         144.0711  142.6347  158.9570 N.ar    1  UNL1       -0.1421
      6 C         142.7581  143.3452  159.1028 C.ar    1  UNL1        0.1690
      7 C         141.8025  142.9405  160.1859 C.ar    1  UNL1        0.0740
      8 C         142.1600  141.8253  161.1233 C.ar    1  UNL1        0.0359
      9 C         141.2044  141.4206  162.2064 C.ar    1  UNL1        0.0204
     10 C         141.5619  140.3054  163.1437 C.ar    1  UNL1        0.0824
     11 N         140.6063  139.9008  164.2269 N.pl3   1  UNL1       -0.3050
     12 C         139.7188  138.7066  164.0364 C.3     1  UNL1        0.0934
     13 C         138.7632  138.3019  165.1194 C.3     1  UNL1        0.0510
     14 C         138.6951  139.0914  166.3931 C.3     1  UNL1        0.1188
     15 C         139.5826  140.2856  166.5836 C.3     1  UNL1        0.0510
     16 C         140.5382  140.6903  165.5004 C.3     1  UNL1        0.0934
     17 O         137.7395  138.6867  167.4761 O.3     1  UNL1       -0.3535
     18 C         137.0089  137.3801  167.3820 C.3     1  UNL1        0.1740
     19 C         142.4006  144.4604  158.1655 C.2     1  UNL1        0.2635
     20 N         142.6210  144.2999  156.6904 N.am    1  UNL1       -0.3240
     21 O         141.8229  145.7359  158.7032 O.2     1  UNL1       -0.2686
     22 H         143.0002  143.4627  156.3375 H       1  UNL1        0.1453
     23 H         142.3864  145.0319  156.0752 H       1  UNL1        0.1453
     24 C         143.9023  138.7843  165.2423 C.3     1  UNL1        0.2525
     25 O         143.2322  138.4797  163.9353 O.3     1  UNL1       -0.4701
     26 N         140.4896  143.6510  160.3317 N.pl3   1  UNL1       -0.3094
     27 H         139.9678  143.8900  159.5318 H       1  UNL1        0.1523
     28 C         139.9717  143.9974  161.6962 C.ar    1  UNL1        0.0761
     29 C         138.5772  143.6093  162.0899 C.ar    1  UNL1        0.0166
     30 C         138.0593  143.9556  163.4544 C.ar    1  UNL1       -0.0028
     31 C         138.9358  144.6901  164.4252 C.ar    1  UNL1       -0.0195
     32 C         138.4178  145.0365  165.7896 C.3     1  UNL1        0.0311
     33 C         140.3302  145.0782  164.0315 C.ar    1  UNL1        0.0267
     34 C         140.8481  144.7318  162.6670 C.ar    1  UNL1        0.1531
     35 F         142.2425  145.1199  162.2732 F       1  UNL1       -0.2029
@<TRIPOS>BOND
     1    24    25    1
     2    25     1    1
     3     1     2   ar
     4     2     3   ar
     5     3     4   ar
     6     4     5   ar
     7     5     6   ar
     8     6    19    1
     9    19    20   am
    10    19    21    2
    11     6     7   ar
    12     7    26    1
    13    26    28    1
    14    28    29   ar
    15    29    30   ar
    16    30    31   ar
    17    31    32    1
    18    31    33   ar
    19    33    34   ar
    20    34    35    1
    21     7     8   ar
    22     8     9   ar
    23     9    10   ar
    24    10    11    1
    25    11    12    1
    26    12    13    1
    27    13    14    1
    28    14    17    1
    29    17    18    1
    30    14    15    1
    31    15    16    1
    32    10     1   ar
    33    16    11    1
    34     8     3   ar
    35    34    28   ar
    36    20    22    1
    37    20    23    1
    38    26    27    1
