@<TRIPOS>MOLECULE
*****
 35 38 0 0 0
SMALL
GASTEIGER

@<TRIPOS>ATOM
      1 C         140.8047  141.6496  167.9584 C.ar    1  UNL1        0.1060
      2 C         140.1752  140.3177  168.2406 C.ar    1  UNL1        0.0215
      3 C         139.2766  139.6819  167.2217 C.ar    1  UNL1        0.0384
      4 C         139.0075  140.3781  165.9205 C.ar    1  UNL1        0.1432
      5 C         139.6371  141.7100  165.6383 C.ar    1  UNL1        0.0888
      6 C         140.5357  142.3458  166.6573 C.ar    1  UNL1        0.0259
      7 C         139.3680  142.4061  164.3371 C.2     1  UNL1        0.2525
      8 O         138.1750  143.3050  164.2001 O.2     1  UNL1       -0.2698
      9 N         140.2919  142.2033  163.1729 N.am    1  UNL1       -0.2660
     10 C         141.5178  141.3391  163.1604 C.3     1  UNL1        0.1236
     11 C         142.1356  141.4308  161.7966 C.ar    1  UNL1        0.0338
     12 C         143.2751  140.9534  160.9460 C.ar    1  UNL1        0.0991
     13 N         143.1353  141.5792  159.5899 N.ar    1  UNL1       -0.2271
     14 N         141.9093  142.4434  159.6025 N.ar    1  UNL1       -0.1680
     15 C         141.2915  142.3517  160.9663 C.ar    1  UNL1        0.0981
     16 C         140.1520  142.8291  161.8169 C.3     1  UNL1        0.1414
     17 C         144.0591  141.3764  158.4258 C.ar    1  UNL1        0.1042
     18 C         143.9163  140.1615  157.5577 C.ar    1  UNL1        0.1181
     19 N         144.8402  139.9586  156.3935 N.ar    1  UNL1       -0.2384
     20 C         145.9069  140.9708  156.0974 C.ar    1  UNL1        0.1285
     21 C         146.0497  142.1858  156.9655 C.ar    1  UNL1        0.1607
     22 F         147.1164  143.1980  156.6693 F       1  UNL1       -0.2025
     23 C         145.1259  142.3886  158.1296 C.ar    1  UNL1        0.0520
     24 S         141.7033  142.2855  168.9773 S.O2    1  UNL1        0.0087
     25 O         142.7337  141.2235  168.7313 O.2     1  UNL1       -0.1686
     26 O         140.6729  143.3474  169.2234 O.2     1  UNL1       -0.1686
     27 C         144.0711  142.6191  169.9932 C.3     1  UNL1        0.0276
     28 C         142.6019  142.9213  169.9963 C.3     1  UNL1        0.1560
     29 O         138.1089  139.7422  164.9015 O.3     1  UNL1       -0.4702
     30 C         138.6692  138.7593  163.9167 C.3     1  UNL1        0.2599
     31 C         138.2346  138.8048  162.4818 C.3     1  UNL1        0.0566
     32 C         139.6641  137.7309  164.3667 C.3     1  UNL1        0.4340
     33 F         140.6590  136.7024  164.8167 F       1  UNL1       -0.1664
     34 F         138.6264  137.1177  165.2597 F       1  UNL1       -0.1664
     35 F         140.7017  138.3439  163.4738 F       1  UNL1       -0.1664
@<TRIPOS>BOND
     1    27    28    1
     2    28    24    1
     3    24    25    2
     4    24    26    2
     5    24     1    1
     6     1     2   ar
     7     2     3   ar
     8     3     4   ar
     9     4    29    1
    10    29    30    1
    11    30    31    1
    12    30    32    1
    13    32    33    1
    14    32    34    1
    15    32    35    1
    16     4     5   ar
    17     5     7    1
    18     7     8    2
    19     7     9   am
    20     9    10    1
    21    10    11    1
    22    11    12   ar
    23    12    13   ar
    24    13    17    1
    25    17    18   ar
    26    18    19   ar
    27    19    20   ar
    28    20    21   ar
    29    21    22    1
    30    21    23   ar
    31    13    14   ar
    32    14    15   ar
    33    15    16    1
    34     5     6   ar
    35     6     1   ar
    36    16     9    1
    37    15    11   ar
    38    23    17   ar
@<TRIPOS>MOLECULE
*****
 35 38 0 0 0
SMALL
GASTEIGER

@<TRIPOS>ATOM
      1 C         142.5601  141.3167  167.3694 C.ar    1  UNL1        0.1060
      2 C         142.1762  139.8667  167.3693 C.ar    1  UNL1        0.0215
      3 C         142.5576  138.9899  166.2136 C.ar    1  UNL1        0.0384
      4 C         143.3231  139.5632  165.0579 C.ar    1  UNL1        0.1432
      5 C         143.7070  141.0133  165.0580 C.ar    1  UNL1        0.0888
      6 C         143.3255  141.8900  166.2139 C.ar    1  UNL1        0.0259
      7 C         144.4724  141.5865  163.9024 C.2     1  UNL1        0.2525
      8 O         145.9721  141.5997  163.9287 O.2     1  UNL1       -0.2698
      9 N         143.7381  142.1465  162.7204 N.am    1  UNL1       -0.2660
     10 C         142.2485  142.2018  162.5531 C.3     1  UNL1        0.1236
     11 C         141.9543  142.8391  161.2274 C.ar    1  UNL1        0.0338
     12 C         140.8518  143.2671  160.3047 C.ar    1  UNL1        0.0991
     13 N         141.4782  143.8702  159.0824 N.ar    1  UNL1       -0.2271
     14 N         142.9678  143.8149  159.2498 N.ar    1  UNL1       -0.1680
     15 C         143.2620  143.1776  160.5754 C.ar    1  UNL1        0.0981
     16 C         144.3645  142.7496  161.4981 C.3     1  UNL1        0.1414
     17 C         140.7439  144.4302  157.9005 C.ar    1  UNL1        0.1042
     18 C         140.4654  143.5612  156.7100 C.ar    1  UNL1        0.1181
     19 N         139.7311  144.1212  155.5279 N.ar    1  UNL1       -0.2384
     20 C         139.2753  145.5503  155.5364 C.ar    1  UNL1        0.1285
     21 C         139.5538  146.4193  156.7270 C.ar    1  UNL1        0.1607
     22 F         139.0979  147.8484  156.7354 F       1  UNL1       -0.2025
     23 C         140.2881  145.8593  157.9089 C.ar    1  UNL1        0.0520
     24 S         142.1787  142.1935  168.5252 S.O2    1  UNL1        0.0087
     25 O         143.6008  142.6554  168.6441 O.2     1  UNL1       -0.1686
     26 O         140.7565  141.7315  168.4063 O.2     1  UNL1       -0.1686
     27 C         140.4415  143.7108  169.7210 C.3     1  UNL1        0.0276
     28 C         141.7972  143.0702  169.6810 C.3     1  UNL1        0.1560
     29 O         143.7045  138.6865  163.9022 O.3     1  UNL1       -0.4702
     30 C         142.7043  138.3884  162.8248 C.3     1  UNL1        0.2599
     31 C         141.4876  137.5684  163.1369 C.3     1  UNL1        0.0566
     32 C         142.9207  138.9102  161.4353 C.3     1  UNL1        0.4340
     33 F         143.1372  139.4321  160.0457 F       1  UNL1       -0.1664
     34 F         141.4727  138.6759  161.1217 F       1  UNL1       -0.1664
     35 F         144.3687  139.1445  161.7488 F       1  UNL1       -0.1664
@<TRIPOS>BOND
     1    27    28    1
     2    28    24    1
     3    24    25    2
     4    24    26    2
     5    24     1    1
     6     1     2   ar
     7     2     3   ar
     8     3     4   ar
     9     4    29    1
    10    29    30    1
    11    30    31    1
    12    30    32    1
    13    32    33    1
    14    32    34    1
    15    32    35    1
    16     4     5   ar
    17     5     7    1
    18     7     8    2
    19     7     9   am
    20     9    10    1
    21    10    11    1
    22    11    12   ar
    23    12    13   ar
    24    13    17    1
    25    17    18   ar
    26    18    19   ar
    27    19    20   ar
    28    20    21   ar
    29    21    22    1
    30    21    23   ar
    31    13    14   ar
    32    14    15   ar
    33    15    16    1
    34     5     6   ar
    35     6     1   ar
    36    16     9    1
    37    15    11   ar
    38    23    17   ar
@<TRIPOS>MOLECULE
*****
 35 38 0 0 0
SMALL
GASTEIGER

@<TRIPOS>ATOM
      1 C         139.9242  143.4725  163.3994 C.ar    1  UNL1        0.1060
      2 C         138.8571  143.2519  164.4302 C.ar    1  UNL1        0.0215
      3 C         138.8497  141.9920  165.2442 C.ar    1  UNL1        0.0384
      4 C         139.9094  140.9527  165.0273 C.ar    1  UNL1        0.1432
      5 C         140.9765  141.1733  163.9964 C.ar    1  UNL1        0.0888
      6 C         140.9838  142.4333  163.1824 C.ar    1  UNL1        0.0259
      7 C         142.0361  140.1340  163.7796 C.2     1  UNL1        0.2525
      8 O         142.9836  139.7861  164.8891 O.2     1  UNL1       -0.2698
      9 N         142.1482  139.4426  162.4531 N.am    1  UNL1       -0.2660
     10 C         141.2765  139.6841  161.2565 C.3     1  UNL1        0.1236
     11 C         141.7412  138.7790  160.1543 C.ar    1  UNL1        0.0338
     12 C         141.4898  138.3689  158.7336 C.ar    1  UNL1        0.0991
     13 N         142.4932  137.3145  158.3709 N.ar    1  UNL1       -0.2271
     14 N         143.3648  137.0730  159.5676 N.ar    1  UNL1       -0.1680
     15 C         142.9001  137.9781  160.6698 C.ar    1  UNL1        0.0981
     16 C         143.1516  138.3882  162.0905 C.3     1  UNL1        0.1414
     17 C         142.6053  136.6231  157.0445 C.ar    1  UNL1        0.1042
     18 C         142.0555  137.2746  155.8103 C.ar    1  UNL1        0.1181
     19 N         142.1676  136.5832  154.4838 N.ar    1  UNL1       -0.2384
     20 C         142.8295  135.2403  154.3917 C.ar    1  UNL1        0.1285
     21 C         143.3793  134.5888  155.6260 C.ar    1  UNL1        0.1607
     22 F         144.0411  133.2458  155.5338 F       1  UNL1       -0.2025
     23 C         143.2672  135.2802  156.9523 C.ar    1  UNL1        0.0520
     24 S         139.9316  144.7324  162.5854 S.O2    1  UNL1        0.0087
     25 O         138.5433  144.4300  162.1046 O.2     1  UNL1       -0.1686
     26 O         141.3200  145.0348  163.0661 O.2     1  UNL1       -0.1686
     27 C         140.2004  145.9302  160.2956 C.3     1  UNL1        0.0276
     28 C         139.9391  145.9923  161.7714 C.3     1  UNL1        0.1560
     29 O         139.9020  139.6928  165.8413 O.3     1  UNL1       -0.4702
     30 C         139.0091  138.5526  165.4505 C.3     1  UNL1        0.2599
     31 C         139.1277  137.9407  164.0861 C.3     1  UNL1        0.0566
     32 C         137.9976  138.0242  166.4239 C.3     1  UNL1        0.4340
     33 F         136.9861  137.4959  167.3975 F       1  UNL1       -0.1664
     34 F         138.0937  136.6690  165.7884 F       1  UNL1       -0.1664
     35 F         137.9014  139.3795  167.0595 F       1  UNL1       -0.1664
@<TRIPOS>BOND
     1    27    28    1
     2    28    24    1
     3    24    25    2
     4    24    26    2
     5    24     1    1
     6     1     2   ar
     7     2     3   ar
     8     3     4   ar
     9     4    29    1
    10    29    30    1
    11    30    31    1
    12    30    32    1
    13    32    33    1
    14    32    34    1
    15    32    35    1
    16     4     5   ar
    17     5     7    1
    18     7     8    2
    19     7     9   am
    20     9    10    1
    21    10    11    1
    22    11    12   ar
    23    12    13   ar
    24    13    17    1
    25    17    18   ar
    26    18    19   ar
    27    19    20   ar
    28    20    21   ar
    29    21    22    1
    30    21    23   ar
    31    13    14   ar
    32    14    15   ar
    33    15    16    1
    34     5     6   ar
    35     6     1   ar
    36    16     9    1
    37    15    11   ar
    38    23    17   ar
@<TRIPOS>MOLECULE
*****
 35 38 0 0 0
SMALL
GASTEIGER

@<TRIPOS>ATOM
      1 C         140.8995  141.1244  167.3952 C.ar    1  UNL1        0.1060
      2 C         139.7903  140.1192  167.2989 C.ar    1  UNL1        0.0215
      3 C         138.7580  140.2428  166.2177 C.ar    1  UNL1        0.0384
      4 C         138.8350  141.3716  165.2328 C.ar    1  UNL1        0.1432
      5 C         139.9442  142.3768  165.3291 C.ar    1  UNL1        0.0888
      6 C         140.9765  142.2531  166.4104 C.ar    1  UNL1        0.0259
      7 C         140.0210  143.5055  164.3443 C.2     1  UNL1        0.2525
      8 O         139.2950  144.7895  164.6169 O.2     1  UNL1       -0.2698
      9 N         140.8239  143.3503  163.0868 N.am    1  UNL1       -0.2660
     10 C         141.5991  142.1322  162.6803 C.3     1  UNL1        0.1236
     11 C         142.2468  142.4151  161.3573 C.ar    1  UNL1        0.0338
     12 C         143.1263  141.8370  160.2885 C.ar    1  UNL1        0.0991
     13 N         143.2950  142.8728  159.2166 N.ar    1  UNL1       -0.2271
     14 N         142.5198  144.0910  159.6231 N.ar    1  UNL1       -0.1680
     15 C         141.8720  143.8081  160.9461 C.ar    1  UNL1        0.0981
     16 C         140.9926  144.3861  162.0150 C.3     1  UNL1        0.1414
     17 C         144.0978  142.7176  157.9592 C.ar    1  UNL1        0.1042
     18 C         143.4064  142.6696  156.6289 C.ar    1  UNL1        0.1181
     19 N         144.2092  142.5145  155.3714 N.ar    1  UNL1       -0.2384
     20 C         145.7036  142.4073  155.4441 C.ar    1  UNL1        0.1285
     21 C         146.3952  142.4553  156.7745 C.ar    1  UNL1        0.1607
     22 F         147.8896  142.3481  156.8471 F       1  UNL1       -0.2025
     23 C         145.5923  142.6104  158.0319 C.ar    1  UNL1        0.0520
     24 S         141.9319  141.0008  168.4764 S.O2    1  UNL1        0.0087
     25 O         140.9839  140.1668  169.2862 O.2     1  UNL1       -0.1686
     26 O         142.8798  141.8348  167.6667 O.2     1  UNL1       -0.1686
     27 C         143.8129  142.0588  169.9229 C.3     1  UNL1        0.0276
     28 C         142.9642  140.8772  169.5577 C.3     1  UNL1        0.1560
     29 O         137.8026  141.4952  164.1516 O.3     1  UNL1       -0.4702
     30 C         138.0652  140.9140  162.7939 C.3     1  UNL1        0.2599
     31 C         138.2886  139.4387  162.6401 C.3     1  UNL1        0.0566
     32 C         138.1043  141.8079  161.5901 C.3     1  UNL1        0.4340
     33 F         138.1435  142.7020  160.3862 F       1  UNL1       -0.1664
     34 F         138.7658  140.7169  160.8014 F       1  UNL1       -0.1664
     35 F         137.4428  142.8989  162.3787 F       1  UNL1       -0.1664
@<TRIPOS>BOND
     1    27    28    1
     2    28    24    1
     3    24    25    2
     4    24    26    2
     5    24     1    1
     6     1     2   ar
     7     2     3   ar
     8     3     4   ar
     9     4    29    1
    10    29    30    1
    11    30    31    1
    12    30    32    1
    13    32    33    1
    14    32    34    1
    15    32    35    1
    16     4     5   ar
    17     5     7    1
    18     7     8    2
    19     7     9   am
    20     9    10    1
    21    10    11    1
    22    11    12   ar
    23    12    13   ar
    24    13    17    1
    25    17    18   ar
    26    18    19   ar
    27    19    20   ar
    28    20    21   ar
    29    21    22    1
    30    21    23   ar
    31    13    14   ar
    32    14    15   ar
    33    15    16    1
    34     5     6   ar
    35     6     1   ar
    36    16     9    1
    37    15    11   ar
    38    23    17   ar
@<TRIPOS>MOLECULE
*****
 35 38 0 0 0
SMALL
GASTEIGER

@<TRIPOS>ATOM
      1 C         140.9812  140.9828  167.1172 C.ar    1  UNL1        0.1060
      2 C         141.7595  142.2395  166.8619 C.ar    1  UNL1        0.0215
      3 C         141.5621  142.9969  165.5823 C.ar    1  UNL1        0.0384
      4 C         140.5864  142.4977  164.5581 C.ar    1  UNL1        0.1432
      5 C         139.8082  141.2410  164.8135 C.ar    1  UNL1        0.0888
      6 C         140.0056  140.4836  166.0931 C.ar    1  UNL1        0.0259
      7 C         138.8326  140.7419  163.7893 C.2     1  UNL1        0.2525
      8 O         137.3582  140.8470  164.0441 O.2     1  UNL1       -0.2698
      9 N         139.3314  140.1376  162.5102 N.am    1  UNL1       -0.2660
     10 C         140.7690  139.9664  162.1178 C.3     1  UNL1        0.1236
     11 C         140.8063  139.3214  160.7640 C.ar    1  UNL1        0.0338
     12 C         141.7178  138.8170  159.6848 C.ar    1  UNL1        0.0991
     13 N         140.8666  138.2778  158.5736 N.ar    1  UNL1       -0.2271
     14 N         139.4289  138.4489  158.9661 N.ar    1  UNL1       -0.1680
     15 C         139.3917  139.0939  160.3198 C.ar    1  UNL1        0.0981
     16 C         138.4802  139.5984  161.3991 C.3     1  UNL1        0.1414
     17 C         141.3654  137.6735  157.2946 C.ar    1  UNL1        0.1042
     18 C         140.3900  137.1613  156.2766 C.ar    1  UNL1        0.1181
     19 N         140.8888  136.5570  154.9975 N.ar    1  UNL1       -0.2384
     20 C         142.3630  136.4649  154.7364 C.ar    1  UNL1        0.1285
     21 C         143.3384  136.9771  155.7545 C.ar    1  UNL1        0.1607
     22 F         144.8127  136.8849  155.4933 F       1  UNL1       -0.2025
     23 C         142.8397  137.5813  157.0335 C.ar    1  UNL1        0.0520
     24 S         141.1786  140.2253  168.3968 S.O2    1  UNL1        0.0087
     25 O         139.7551  139.7561  168.3386 O.2     1  UNL1       -0.1686
     26 O         142.6021  140.6946  168.4550 O.2     1  UNL1       -0.1686
     27 C         142.6649  138.7429  169.9276 C.3     1  UNL1        0.0276
     28 C         141.3760  139.4679  169.6764 C.3     1  UNL1        0.1560
     29 O         140.3890  143.2551  163.2786 O.3     1  UNL1       -0.4702
     30 C         139.4560  144.4289  163.2381 C.3     1  UNL1        0.2599
     31 C         139.6841  145.5347  162.2506 C.3     1  UNL1        0.0566
     32 C         138.2947  144.4969  164.1851 C.3     1  UNL1        0.4340
     33 F         137.1333  144.5649  165.1321 F       1  UNL1       -0.1664
     34 F         139.1500  145.2214  165.1820 F       1  UNL1       -0.1664
     35 F         137.4394  143.7725  163.1883 F       1  UNL1       -0.1664
@<TRIPOS>BOND
     1    27    28    1
     2    28    24    1
     3    24    25    2
     4    24    26    2
     5    24     1    1
     6     1     2   ar
     7     2     3   ar
     8     3     4   ar
     9     4    29    1
    10    29    30    1
    11    30    31    1
    12    30    32    1
    13    32    33    1
    14    32    34    1
    15    32    35    1
    16     4     5   ar
    17     5     7    1
    18     7     8    2
    19     7     9   am
    20     9    10    1
    21    10    11    1
    22    11    12   ar
    23    12    13   ar
    24    13    17    1
    25    17    18   ar
    26    18    19   ar
    27    19    20   ar
    28    20    21   ar
    29    21    22    1
    30    21    23   ar
    31    13    14   ar
    32    14    15   ar
    33    15    16    1
    34     5     6   ar
    35     6     1   ar
    36    16     9    1
    37    15    11   ar
    38    23    17   ar
@<TRIPOS>MOLECULE
*****
 35 38 0 0 0
SMALL
GASTEIGER

@<TRIPOS>ATOM
      1 C         139.6584  139.8722  166.1815 C.ar    1  UNL1        0.1060
      2 C         141.1083  139.6288  166.4788 C.ar    1  UNL1        0.0215
      3 C         142.1139  140.7182  166.2508 C.ar    1  UNL1        0.0384
      4 C         141.6694  142.0512  165.7255 C.ar    1  UNL1        0.1432
      5 C         140.2194  142.2946  165.4283 C.ar    1  UNL1        0.0888
      6 C         139.2139  141.2051  165.6563 C.ar    1  UNL1        0.0259
      7 C         139.7750  143.6275  164.9030 C.2     1  UNL1        0.2525
      8 O         139.1278  144.6187  165.8242 O.2     1  UNL1       -0.2698
      9 N         139.9779  143.9692  163.4566 N.am    1  UNL1       -0.2660
     10 C         140.6070  143.0844  162.4215 C.3     1  UNL1        0.1236
     11 C         140.6051  143.8241  161.1166 C.ar    1  UNL1        0.0338
     12 C         140.9928  143.7344  159.6703 C.ar    1  UNL1        0.0991
     13 N         140.6021  145.0209  159.0050 N.ar    1  UNL1       -0.2271
     14 N         139.9730  145.9056  160.0402 N.ar    1  UNL1       -0.1680
     15 C         139.9749  145.1659  161.3451 C.ar    1  UNL1        0.0981
     16 C         139.5872  145.2556  162.7914 C.3     1  UNL1        0.1414
     17 C         140.8050  145.3625  157.5587 C.ar    1  UNL1        0.1042
     18 C         139.8288  146.2586  156.8557 C.ar    1  UNL1        0.1181
     19 N         140.0316  146.6003  155.4092 N.ar    1  UNL1       -0.2384
     20 C         141.2106  146.0460  154.6658 C.ar    1  UNL1        0.1285
     21 C         142.1869  145.1499  155.3689 C.ar    1  UNL1        0.1607
     22 F         143.3659  144.5956  154.6254 F       1  UNL1       -0.2025
     23 C         141.9840  144.8082  156.8152 C.ar    1  UNL1        0.0520
     24 S         138.6528  138.7828  166.4095 S.O2    1  UNL1        0.0087
     25 O         138.5299  139.1968  167.8459 O.2     1  UNL1       -0.1686
     26 O         138.7758  138.3687  164.9730 O.2     1  UNL1       -0.1686
     27 C         136.7745  137.7214  167.8570 C.3     1  UNL1        0.0276
     28 C         137.6473  137.6933  166.6374 C.3     1  UNL1        0.1560
     29 O         142.6749  143.1406  165.4976 O.3     1  UNL1       -0.4702
     30 C         143.5686  143.0965  164.2937 C.3     1  UNL1        0.2599
     31 C         144.1486  141.7905  163.8376 C.3     1  UNL1        0.0566
     32 C         143.8822  144.3583  163.5457 C.3     1  UNL1        0.4340
     33 F         144.1958  145.6202  162.7978 F       1  UNL1       -0.1664
     34 F         144.8930  143.6182  162.7208 F       1  UNL1       -0.1664
     35 F         142.8714  145.0985  164.3706 F       1  UNL1       -0.1664
@<TRIPOS>BOND
     1    27    28    1
     2    28    24    1
     3    24    25    2
     4    24    26    2
     5    24     1    1
     6     1     2   ar
     7     2     3   ar
     8     3     4   ar
     9     4    29    1
    10    29    30    1
    11    30    31    1
    12    30    32    1
    13    32    33    1
    14    32    34    1
    15    32    35    1
    16     4     5   ar
    17     5     7    1
    18     7     8    2
    19     7     9   am
    20     9    10    1
    21    10    11    1
    22    11    12   ar
    23    12    13   ar
    24    13    17    1
    25    17    18   ar
    26    18    19   ar
    27    19    20   ar
    28    20    21   ar
    29    21    22    1
    30    21    23   ar
    31    13    14   ar
    32    14    15   ar
    33    15    16    1
    34     5     6   ar
    35     6     1   ar
    36    16     9    1
    37    15    11   ar
    38    23    17   ar
@<TRIPOS>MOLECULE
*****
 35 38 0 0 0
SMALL
GASTEIGER

@<TRIPOS>ATOM
      1 C         139.9303  140.1691  165.5404 C.ar    1  UNL1        0.1060
      2 C         139.9879  141.6678  165.5192 C.ar    1  UNL1        0.0215
      3 C         141.0343  142.3667  164.7026 C.ar    1  UNL1        0.0384
      4 C         142.0230  141.5666  163.9073 C.ar    1  UNL1        0.1432
      5 C         141.9654  140.0679  163.9285 C.ar    1  UNL1        0.0888
      6 C         140.9190  139.3691  164.7451 C.ar    1  UNL1        0.0259
      7 C         142.9541  139.2680  163.1332 C.2     1  UNL1        0.2525
      8 O         144.2655  138.8738  163.7454 O.2     1  UNL1       -0.2698
      9 N         142.6314  138.8622  161.7256 N.am    1  UNL1       -0.2660
     10 C         141.3674  139.1814  160.9838 C.3     1  UNL1        0.1236
     11 C         141.4709  138.5824  159.6125 C.ar    1  UNL1        0.0338
     12 C         140.7536  138.4095  158.3065 C.ar    1  UNL1        0.0991
     13 N         141.6383  137.6132  157.3936 N.ar    1  UNL1       -0.2271
     14 N         142.9024  137.2940  158.1355 N.ar    1  UNL1       -0.1680
     15 C         142.7989  137.8930  159.5068 C.ar    1  UNL1        0.0981
     16 C         143.5161  138.0659  160.8128 C.3     1  UNL1        0.1414
     17 C         141.3157  137.2075  155.9861 C.ar    1  UNL1        0.1042
     18 C         142.4120  136.7644  155.0632 C.ar    1  UNL1        0.1181
     19 N         142.0894  136.3586  153.6556 N.ar    1  UNL1       -0.2384
     20 C         140.6704  136.3958  153.1710 C.ar    1  UNL1        0.1285
     21 C         139.5739  136.8389  154.0939 C.ar    1  UNL1        0.1607
     22 F         138.1548  136.8761  153.6092 F       1  UNL1       -0.2025
     23 C         139.8966  137.2447  155.5014 C.ar    1  UNL1        0.0520
     24 S         138.8839  139.4703  166.3570 S.O2    1  UNL1        0.0087
     25 O         138.4174  138.7389  165.1333 O.2     1  UNL1       -0.1686
     26 O         139.3505  140.2017  167.5807 O.2     1  UNL1       -0.1686
     27 C         137.4651  137.3527  166.8599 C.3     1  UNL1        0.0276
     28 C         137.8376  138.7715  167.1736 C.3     1  UNL1        0.1560
     29 O         143.0694  142.2654  163.0907 O.3     1  UNL1       -0.4702
     30 C         144.2500  142.8973  163.7665 C.3     1  UNL1        0.2599
     31 C         145.5237  142.1222  163.9307 C.3     1  UNL1        0.0566
     32 C         144.1571  144.3042  164.2783 C.3     1  UNL1        0.4340
     33 F         144.0641  145.7112  164.7900 F       1  UNL1       -0.1664
     34 F         144.6033  143.8409  165.6333 F       1  UNL1       -0.1664
     35 F         143.7109  144.7676  162.9233 F       1  UNL1       -0.1664
@<TRIPOS>BOND
     1    27    28    1
     2    28    24    1
     3    24    25    2
     4    24    26    2
     5    24     1    1
     6     1     2   ar
     7     2     3   ar
     8     3     4   ar
     9     4    29    1
    10    29    30    1
    11    30    31    1
    12    30    32    1
    13    32    33    1
    14    32    34    1
    15    32    35    1
    16     4     5   ar
    17     5     7    1
    18     7     8    2
    19     7     9   am
    20     9    10    1
    21    10    11    1
    22    11    12   ar
    23    12    13   ar
    24    13    17    1
    25    17    18   ar
    26    18    19   ar
    27    19    20   ar
    28    20    21   ar
    29    21    22    1
    30    21    23   ar
    31    13    14   ar
    32    14    15   ar
    33    15    16    1
    34     5     6   ar
    35     6     1   ar
    36    16     9    1
    37    15    11   ar
    38    23    17   ar
@<TRIPOS>MOLECULE
*****
 35 38 0 0 0
SMALL
GASTEIGER

@<TRIPOS>ATOM
      1 C         141.5754  141.2674  167.2391 C.ar    1  UNL1        0.1060
      2 C         140.3612  142.1070  166.9734 C.ar    1  UNL1        0.0215
      3 C         140.1833  142.7672  165.6383 C.ar    1  UNL1        0.0384
      4 C         141.2198  142.5878  164.5689 C.ar    1  UNL1        0.1432
      5 C         142.4340  141.7482  164.8346 C.ar    1  UNL1        0.0888
      6 C         142.6119  141.0880  166.1697 C.ar    1  UNL1        0.0259
      7 C         143.4704  141.5688  163.7651 C.2     1  UNL1        0.2525
      8 O         144.8143  142.2199  163.9064 O.2     1  UNL1       -0.2698
      9 N         143.1629  140.7384  162.5544 N.am    1  UNL1       -0.2660
     10 C         141.8703  140.0300  162.2763 C.3     1  UNL1        0.1236
     11 C         142.0026  139.3244  160.9593 C.ar    1  UNL1        0.0338
     12 C         141.2855  138.4504  159.9734 C.ar    1  UNL1        0.0991
     13 N         142.2165  138.1826  158.8282 N.ar    1  UNL1       -0.2271
     14 N         143.5091  138.8911  159.1063 N.ar    1  UNL1       -0.1680
     15 C         143.3769  139.5967  160.4234 C.ar    1  UNL1        0.0981
     16 C         144.0940  140.4707  161.4093 C.3     1  UNL1        0.1414
     17 C         141.9090  137.3522  157.6175 C.ar    1  UNL1        0.1042
     18 C         142.9083  136.3489  157.1227 C.ar    1  UNL1        0.1181
     19 N         142.6008  135.5185  155.9119 N.ar    1  UNL1       -0.2384
     20 C         141.2941  135.6913  155.1961 C.ar    1  UNL1        0.1285
     21 C         140.2948  136.6947  155.6910 C.ar    1  UNL1        0.1607
     22 F         138.9879  136.8675  154.9750 F       1  UNL1       -0.2025
     23 C         140.6022  137.5251  156.9016 C.ar    1  UNL1        0.0520
     24 S         141.7533  140.6072  168.5742 S.O2    1  UNL1        0.0087
     25 O         143.0398  141.3529  168.7715 O.2     1  UNL1       -0.1686
     26 O         140.4669  139.8614  168.3768 O.2     1  UNL1       -0.1686
     27 C         142.6701  138.6454  170.0098 C.3     1  UNL1        0.0276
     28 C         141.9313  139.9469  169.9093 C.3     1  UNL1        0.1560
     29 O         141.0418  143.2480  163.2338 O.3     1  UNL1       -0.4702
     30 C         141.2210  144.7313  163.1008 C.3     1  UNL1        0.2599
     31 C         142.4369  145.3946  163.6767 C.3     1  UNL1        0.0566
     32 C         140.1842  145.5514  162.3920 C.3     1  UNL1        0.4340
     33 F         139.1475  146.3717  161.6830 F       1  UNL1       -0.1664
     34 F         139.2831  145.4448  163.5864 F       1  UNL1       -0.1664
     35 F         141.0853  145.6581  161.1976 F       1  UNL1       -0.1664
@<TRIPOS>BOND
     1    27    28    1
     2    28    24    1
     3    24    25    2
     4    24    26    2
     5    24     1    1
     6     1     2   ar
     7     2     3   ar
     8     3     4   ar
     9     4    29    1
    10    29    30    1
    11    30    31    1
    12    30    32    1
    13    32    33    1
    14    32    34    1
    15    32    35    1
    16     4     5   ar
    17     5     7    1
    18     7     8    2
    19     7     9   am
    20     9    10    1
    21    10    11    1
    22    11    12   ar
    23    12    13   ar
    24    13    17    1
    25    17    18   ar
    26    18    19   ar
    27    19    20   ar
    28    20    21   ar
    29    21    22    1
    30    21    23   ar
    31    13    14   ar
    32    14    15   ar
    33    15    16    1
    34     5     6   ar
    35     6     1   ar
    36    16     9    1
    37    15    11   ar
    38    23    17   ar
@<TRIPOS>MOLECULE
*****
 35 38 0 0 0
SMALL
GASTEIGER

@<TRIPOS>ATOM
      1 C         141.1599  140.8138  167.9365 C.ar    1  UNL1        0.1060
      2 C         142.5107  140.1879  168.1201 C.ar    1  UNL1        0.0215
      3 C         143.0840  139.3125  167.0455 C.ar    1  UNL1        0.0384
      4 C         142.3065  139.0630  165.7871 C.ar    1  UNL1        0.1432
      5 C         140.9557  139.6889  165.6035 C.ar    1  UNL1        0.0888
      6 C         140.3825  140.5643  166.6782 C.ar    1  UNL1        0.0259
      7 C         140.1784  139.4393  164.3452 C.2     1  UNL1        0.2525
      8 O         139.2451  138.2682  164.2600 O.2     1  UNL1       -0.2698
      9 N         140.3343  140.3610  163.1720 N.am    1  UNL1       -0.2660
     10 C         141.2249  141.5663  163.1100 C.3     1  UNL1        0.1236
     11 C         141.0680  142.1893  161.7546 C.ar    1  UNL1        0.0338
     12 C         141.5214  143.3193  160.8785 C.ar    1  UNL1        0.0991
     13 N         140.8140  143.1975  159.5614 N.ar    1  UNL1       -0.2271
     14 N         139.9233  141.9921  159.6235 N.ar    1  UNL1       -0.1680
     15 C         140.0803  141.3691  160.9789 C.ar    1  UNL1        0.0981
     16 C         139.6268  140.2391  161.8550 C.3     1  UNL1        0.1414
     17 C         140.9699  144.1191  158.3883 C.ar    1  UNL1        0.1042
     18 C         142.0184  143.8431  157.3518 C.ar    1  UNL1        0.1181
     19 N         142.1744  144.7647  156.1786 N.ar    1  UNL1       -0.2384
     20 C         141.2817  145.9623  156.0420 C.ar    1  UNL1        0.1285
     21 C         140.2331  146.2384  157.0785 C.ar    1  UNL1        0.1607
     22 F         139.3404  147.4361  156.9418 F       1  UNL1       -0.2025
     23 C         140.0772  145.3168  158.2516 C.ar    1  UNL1        0.0520
     24 S         140.5866  141.6892  169.0112 S.O2    1  UNL1        0.0087
     25 O         139.3932  140.7858  169.1104 O.2     1  UNL1       -0.1686
     26 O         141.7799  142.5926  168.9120 O.2     1  UNL1       -0.1686
     27 C         140.2239  144.0489  170.0360 C.3     1  UNL1        0.0276
     28 C         140.0132  142.5646  170.0859 C.3     1  UNL1        0.1560
     29 O         142.8798  138.1876  164.7124 O.3     1  UNL1       -0.4702
     30 C         143.6933  138.7925  163.6068 C.3     1  UNL1        0.2599
     31 C         143.4260  138.4074  162.1820 C.3     1  UNL1        0.0566
     32 C         144.7740  139.7824  163.9260 C.3     1  UNL1        0.4340
     33 F         145.8549  140.7724  164.2453 F       1  UNL1       -0.1664
     34 F         144.1398  140.7746  162.9969 F       1  UNL1       -0.1664
     35 F         145.4083  138.7903  164.8552 F       1  UNL1       -0.1664
@<TRIPOS>BOND
     1    27    28    1
     2    28    24    1
     3    24    25    2
     4    24    26    2
     5    24     1    1
     6     1     2   ar
     7     2     3   ar
     8     3     4   ar
     9     4    29    1
    10    29    30    1
    11    30    31    1
    12    30    32    1
    13    32    33    1
    14    32    34    1
    15    32    35    1
    16     4     5   ar
    17     5     7    1
    18     7     8    2
    19     7     9   am
    20     9    10    1
    21    10    11    1
    22    11    12   ar
    23    12    13   ar
    24    13    17    1
    25    17    18   ar
    26    18    19   ar
    27    19    20   ar
    28    20    21   ar
    29    21    22    1
    30    21    23   ar
    31    13    14   ar
    32    14    15   ar
    33    15    16    1
    34     5     6   ar
    35     6     1   ar
    36    16     9    1
    37    15    11   ar
    38    23    17   ar
