@<TRIPOS>MOLECULE
*****
 36 40 0 0 0
SMALL
GASTEIGER

@<TRIPOS>ATOM
      1 C         141.2197  143.4369  162.3886 C.ar    1  UNL1        0.0645
      2 C         141.3715  144.2963  161.1687 C.ar    1  UNL1        0.0835
      3 C         140.3774  145.3844  160.8893 C.ar    1  UNL1        0.1147
      4 N         139.2316  145.6130  161.8300 N.ar    1  UNL1       -0.2409
      5 C         139.0798  144.7535  163.0500 C.ar    1  UNL1        0.1002
      6 C         140.0739  143.6655  163.3293 C.ar    1  UNL1        0.0338
      7 N         145.1960  139.0848  163.5058 N.3     1  UNL1       -0.3221
      8 C         144.2019  140.1728  163.2265 C.3     1  UNL1        0.0542
      9 C         144.4365  141.5568  163.7553 C.3     1  UNL1        0.0369
     10 C         143.4424  142.6449  163.4760 C.3     1  UNL1        0.0922
     11 N         142.2138  142.3489  162.6679 N.pl3   1  UNL1       -0.3064
     12 C         141.9793  140.9649  162.1392 C.3     1  UNL1        0.0922
     13 C         142.9733  139.8769  162.4184 C.3     1  UNL1        0.0369
     14 H         145.9629  139.4599  164.0640 H       1  UNL1        0.1188
     15 H         145.5617  138.7239  162.6246 H       1  UNL1        0.1188
     16 C         139.9221  142.8061  164.5492 C.ar    1  UNL1        0.0044
     17 C         140.5615  143.2189  165.8418 C.ar    1  UNL1        0.0115
     18 C         140.4097  142.3594  167.0618 C.ar    1  UNL1        0.0585
     19 CL        141.0492  142.7723  168.3543 Cl      1  UNL1       -0.0822
     20 C         139.6185  141.0872  166.9892 C.ar    1  UNL1        0.0228
     21 C         138.9791  140.6743  165.6966 C.ar    1  UNL1        0.0585
     22 CL        138.1879  139.4020  165.6240 Cl      1  UNL1       -0.0822
     23 C         139.1309  141.5337  164.4767 C.ar    1  UNL1        0.0115
     24 N         142.5173  144.0678  160.2280 N.am    1  UNL1       -0.2769
     25 C         142.3807  143.0829  159.1049 C.2     1  UNL1        0.2689
     26 O         141.0982  142.3266  158.9225 O.2     1  UNL1       -0.2681
     27 H         143.3591  144.5641  160.3478 H       1  UNL1        0.1553
     28 C         143.5265  142.8543  158.1643 C.ar    1  UNL1        0.1538
     29 C         143.4176  142.5525  156.6990 C.ar    1  UNL1        0.1053
     30 N         144.8062  142.3991  156.1528 N.ar    1  UNL1       -0.2873
     31 C         145.3150  142.0977  154.7743 C.ar    1  UNL1        0.0815
     32 C         146.7908  142.0032  154.5236 C.ar    1  UNL1        0.0191
     33 C         147.7579  142.2101  155.6514 C.ar    1  UNL1        0.0046
     34 C         147.2492  142.5115  157.0299 C.ar    1  UNL1        0.0374
     35 C         145.7733  142.6060  157.2806 C.ar    1  UNL1        0.1480
     36 N         144.9824  142.8873  158.5237 N.ar    1  UNL1       -0.2218
@<TRIPOS>BOND
     1     7     8    1
     2     8     9    1
     3     9    10    1
     4    10    11    1
     5    11     1    1
     6     1     2   ar
     7     2    24    1
     8    24    25   am
     9    25    26    2
    10    25    28    1
    11    28    29   ar
    12    29    30   ar
    13    30    31   ar
    14    31    32   ar
    15    32    33   ar
    16    33    34   ar
    17    34    35   ar
    18    35    36   ar
    19     2     3   ar
    20     3     4   ar
    21     4     5   ar
    22     5     6   ar
    23     6    16    1
    24    16    17   ar
    25    17    18   ar
    26    18    19    1
    27    18    20   ar
    28    20    21   ar
    29    21    22    1
    30    21    23   ar
    31    11    12    1
    32    12    13    1
    33    13     8    1
    34     6     1   ar
    35    23    16   ar
    36    36    28   ar
    37    35    30   ar
    38     7    14    1
    39     7    15    1
    40    24    27    1
@<TRIPOS>MOLECULE
*****
 36 40 0 0 0
SMALL
GASTEIGER

@<TRIPOS>ATOM
      1 C         141.2208  143.4329  162.3774 C.ar    1  UNL1        0.0645
      2 C         141.3731  144.2894  161.1555 C.ar    1  UNL1        0.0835
      3 C         140.3799  145.3778  160.8740 C.ar    1  UNL1        0.1147
      4 N         139.2345  145.6095  161.8143 N.ar    1  UNL1       -0.2409
      5 C         139.0822  144.7528  163.0363 C.ar    1  UNL1        0.1002
      6 C         140.0754  143.6646  163.3178 C.ar    1  UNL1        0.0338
      7 N         145.1934  139.0797  163.5035 N.3     1  UNL1       -0.3221
      8 C         144.2003  140.1680  163.2220 C.3     1  UNL1        0.0542
      9 C         144.4415  141.5555  163.7384 C.3     1  UNL1        0.0369
     10 C         143.4484  142.6438  163.4569 C.3     1  UNL1        0.0922
     11 N         142.2140  142.3446  162.6590 N.pl3   1  UNL1       -0.3064
     12 C         141.9727  140.9571  162.1425 C.3     1  UNL1        0.0922
     13 C         142.9659  139.8688  162.4241 C.3     1  UNL1        0.0369
     14 H         145.9648  139.4573  164.0539 H       1  UNL1        0.1188
     15 H         145.5526  138.7110  162.6229 H       1  UNL1        0.1188
     16 C         139.9231  142.8080  164.5397 C.ar    1  UNL1        0.0044
     17 C         139.1137  141.5468  164.4753 C.ar    1  UNL1        0.0115
     18 C         138.9614  140.6902  165.6973 C.ar    1  UNL1        0.0585
     19 CL        138.1520  139.4289  165.6330 Cl      1  UNL1       -0.0822
     20 C         139.6185  141.0949  166.9835 C.ar    1  UNL1        0.0228
     21 C         140.4279  142.3561  167.0479 C.ar    1  UNL1        0.0585
     22 CL        141.0850  142.7608  168.3342 Cl      1  UNL1       -0.0822
     23 C         140.5802  143.2127  165.8260 C.ar    1  UNL1        0.0115
     24 N         142.5186  144.0577  160.2152 N.am    1  UNL1       -0.2769
     25 C         142.3815  143.0690  159.0955 C.2     1  UNL1        0.2689
     26 O         141.0990  142.3121  158.9161 O.2     1  UNL1       -0.2681
     27 H         143.3603  144.5546  160.3329 H       1  UNL1        0.1553
     28 C         143.5269  142.8373  158.1551 C.ar    1  UNL1        0.1538
     29 C         143.4170  142.5118  156.6950 C.ar    1  UNL1        0.1053
     30 N         144.8056  142.3638  156.1472 N.ar    1  UNL1       -0.2873
     31 C         145.3135  142.0461  154.7721 C.ar    1  UNL1        0.0815
     32 C         146.7895  141.9625  154.5185 C.ar    1  UNL1        0.0191
     33 C         147.7576  142.1965  155.6401 C.ar    1  UNL1        0.0046
     34 C         147.2497  142.5141  157.0153 C.ar    1  UNL1        0.0374
     35 C         145.7737  142.5978  157.2688 C.ar    1  UNL1        0.1480
     36 N         144.9834  142.8904  158.5097 N.ar    1  UNL1       -0.2218
@<TRIPOS>BOND
     1     7     8    1
     2     8     9    1
     3     9    10    1
     4    10    11    1
     5    11     1    1
     6     1     2   ar
     7     2    24    1
     8    24    25   am
     9    25    26    2
    10    25    28    1
    11    28    29   ar
    12    29    30   ar
    13    30    31   ar
    14    31    32   ar
    15    32    33   ar
    16    33    34   ar
    17    34    35   ar
    18    35    36   ar
    19     2     3   ar
    20     3     4   ar
    21     4     5   ar
    22     5     6   ar
    23     6    16    1
    24    16    17   ar
    25    17    18   ar
    26    18    19    1
    27    18    20   ar
    28    20    21   ar
    29    21    22    1
    30    21    23   ar
    31    11    12    1
    32    12    13    1
    33    13     8    1
    34     6     1   ar
    35    23    16   ar
    36    36    28   ar
    37    35    30   ar
    38     7    14    1
    39     7    15    1
    40    24    27    1
@<TRIPOS>MOLECULE
*****
 36 40 0 0 0
SMALL
GASTEIGER

@<TRIPOS>ATOM
      1 C         142.3264  141.3192  164.8730 C.ar    1  UNL1        0.0645
      2 C         142.8393  141.7208  163.5218 C.ar    1  UNL1        0.0835
      3 C         143.8789  142.7957  163.4033 C.ar    1  UNL1        0.1147
      4 N         144.4055  143.4689  164.6359 N.ar    1  UNL1       -0.2409
      5 C         143.8926  143.0672  165.9871 C.ar    1  UNL1        0.1002
      6 C         142.8531  141.9924  166.1056 C.ar    1  UNL1        0.0338
      7 N         138.1683  137.0197  165.3469 N.3     1  UNL1       -0.3221
      8 C         139.2078  138.0946  165.2284 C.3     1  UNL1        0.0542
      9 C         138.8096  139.5373  165.3281 C.3     1  UNL1        0.0369
     10 C         139.8492  140.6122  165.2096 C.3     1  UNL1        0.0922
     11 N         141.2869  140.2444  164.9915 N.pl3   1  UNL1       -0.3064
     12 C         141.6851  138.8016  164.8918 C.3     1  UNL1        0.0922
     13 C         140.6455  137.7267  165.0102 C.3     1  UNL1        0.0369
     14 H         137.2531  137.4462  165.4914 H       1  UNL1        0.1188
     15 H         138.3913  136.4168  166.1389 H       1  UNL1        0.1188
     16 C         142.3402  141.5908  167.4567 C.ar    1  UNL1        0.0044
     17 C         141.3906  142.4868  168.1953 C.ar    1  UNL1        0.0115
     18 C         140.8777  142.0852  169.5465 C.ar    1  UNL1        0.0585
     19 CL        139.9282  142.9812  170.2850 Cl      1  UNL1       -0.0822
     20 C         141.3144  140.7875  170.1591 C.ar    1  UNL1        0.0228
     21 C         142.2640  139.8914  169.4206 C.ar    1  UNL1        0.0585
     22 CL        142.7007  138.5937  170.0332 Cl      1  UNL1       -0.0822
     23 C         142.7769  140.2931  168.0694 C.ar    1  UNL1        0.0115
     24 N         142.3126  141.0476  162.2892 N.am    1  UNL1       -0.2769
     25 C         143.0716  139.9094  161.6739 C.2     1  UNL1        0.2689
     26 O         144.3571  139.4444  162.2912 O.2     1  UNL1       -0.2681
     27 H         141.4689  141.3527  161.8840 H       1  UNL1        0.1553
     28 C         142.5450  139.2362  160.4412 C.ar    1  UNL1        0.1538
     29 C         141.1310  139.2893  159.9434 C.ar    1  UNL1        0.1053
     30 N         141.0519  138.4776  158.6845 N.ar    1  UNL1       -0.2873
     31 C         139.9133  138.1720  157.7571 C.ar    1  UNL1        0.0815
     32 C         140.1398  137.3116  156.5495 C.ar    1  UNL1        0.0191
     33 C         141.5049  136.7568  156.2693 C.ar    1  UNL1        0.0046
     34 C         142.6436  137.0624  157.1966 C.ar    1  UNL1        0.0374
     35 C         142.4171  137.9228  158.4042 C.ar    1  UNL1        0.1480
     36 N         143.3398  138.3916  159.4899 N.ar    1  UNL1       -0.2218
@<TRIPOS>BOND
     1     7     8    1
     2     8     9    1
     3     9    10    1
     4    10    11    1
     5    11     1    1
     6     1     2   ar
     7     2    24    1
     8    24    25   am
     9    25    26    2
    10    25    28    1
    11    28    29   ar
    12    29    30   ar
    13    30    31   ar
    14    31    32   ar
    15    32    33   ar
    16    33    34   ar
    17    34    35   ar
    18    35    36   ar
    19     2     3   ar
    20     3     4   ar
    21     4     5   ar
    22     5     6   ar
    23     6    16    1
    24    16    17   ar
    25    17    18   ar
    26    18    19    1
    27    18    20   ar
    28    20    21   ar
    29    21    22    1
    30    21    23   ar
    31    11    12    1
    32    12    13    1
    33    13     8    1
    34     6     1   ar
    35    23    16   ar
    36    36    28   ar
    37    35    30   ar
    38     7    14    1
    39     7    15    1
    40    24    27    1
@<TRIPOS>MOLECULE
*****
 36 40 0 0 0
SMALL
GASTEIGER

@<TRIPOS>ATOM
      1 C         141.9268  140.3754  165.7803 C.ar    1  UNL1        0.0645
      2 C         142.8237  139.7031  164.7835 C.ar    1  UNL1        0.0835
      3 C         143.8187  138.6782  165.2414 C.ar    1  UNL1        0.1147
      4 N         143.9167  138.3256  166.6961 N.ar    1  UNL1       -0.2409
      5 C         143.0198  138.9980  167.6929 C.ar    1  UNL1        0.1002
      6 C         142.0249  140.0229  167.2349 C.ar    1  UNL1        0.0338
      7 N         137.9469  144.4748  163.9485 N.3     1  UNL1       -0.3221
      8 C         138.9419  143.4500  164.4065 C.3     1  UNL1        0.0542
      9 C         140.3629  143.8504  164.6716 C.3     1  UNL1        0.0369
     10 C         141.3579  142.8255  165.1296 C.3     1  UNL1        0.0922
     11 N         140.9319  141.4003  165.3223 N.pl3   1  UNL1       -0.3064
     12 C         139.5108  140.9999  165.0571 C.3     1  UNL1        0.0922
     13 C         138.5158  142.0247  164.5992 C.3     1  UNL1        0.0369
     14 H         138.4050  145.3829  163.8715 H       1  UNL1        0.1188
     15 H         137.1850  144.5346  164.6240 H       1  UNL1        0.1188
     16 C         141.1280  140.6952  168.2317 C.ar    1  UNL1        0.0044
     17 C         139.9613  139.9520  168.8119 C.ar    1  UNL1        0.0115
     18 C         139.0644  140.6244  169.8087 C.ar    1  UNL1        0.0585
     19 CL        137.8977  139.8813  170.3888 Cl      1  UNL1       -0.0822
     20 C         139.3342  142.0399  170.2253 C.ar    1  UNL1        0.0228
     21 C         140.5009  142.7830  169.6451 C.ar    1  UNL1        0.0585
     22 CL        140.7707  144.1986  170.0618 Cl      1  UNL1       -0.0822
     23 C         141.3978  142.1107  168.6484 C.ar    1  UNL1        0.0115
     24 N         142.7256  140.0556  163.3288 N.am    1  UNL1       -0.2769
     25 C         143.6574  141.0725  162.7391 C.2     1  UNL1        0.2689
     26 O         144.6873  141.7368  163.6040 O.2     1  UNL1       -0.2681
     27 H         142.0497  139.6196  162.7611 H       1  UNL1        0.1553
     28 C         143.5594  141.4250  161.2844 C.ar    1  UNL1        0.1538
     29 C         143.2376  142.7791  160.7251 C.ar    1  UNL1        0.1053
     30 N         143.2452  142.6764  159.2286 N.ar    1  UNL1       -0.2873
     31 C         142.9971  143.6905  158.1516 C.ar    1  UNL1        0.0815
     32 C         143.0754  143.2869  156.7091 C.ar    1  UNL1        0.0191
     33 C         143.4018  141.8693  156.3435 C.ar    1  UNL1        0.0046
     34 C         143.6499  140.8551  157.4205 C.ar    1  UNL1        0.0374
     35 C         143.5717  141.2587  158.8630 C.ar    1  UNL1        0.1480
     36 N         143.7658  140.4853  160.1336 N.ar    1  UNL1       -0.2218
@<TRIPOS>BOND
     1     7     8    1
     2     8     9    1
     3     9    10    1
     4    10    11    1
     5    11     1    1
     6     1     2   ar
     7     2    24    1
     8    24    25   am
     9    25    26    2
    10    25    28    1
    11    28    29   ar
    12    29    30   ar
    13    30    31   ar
    14    31    32   ar
    15    32    33   ar
    16    33    34   ar
    17    34    35   ar
    18    35    36   ar
    19     2     3   ar
    20     3     4   ar
    21     4     5   ar
    22     5     6   ar
    23     6    16    1
    24    16    17   ar
    25    17    18   ar
    26    18    19    1
    27    18    20   ar
    28    20    21   ar
    29    21    22    1
    30    21    23   ar
    31    11    12    1
    32    12    13    1
    33    13     8    1
    34     6     1   ar
    35    23    16   ar
    36    36    28   ar
    37    35    30   ar
    38     7    14    1
    39     7    15    1
    40    24    27    1
@<TRIPOS>MOLECULE
*****
 36 40 0 0 0
SMALL
GASTEIGER

@<TRIPOS>ATOM
      1 C         141.9249  140.3807  165.7678 C.ar    1  UNL1        0.0645
      2 C         142.8215  139.7109  164.7691 C.ar    1  UNL1        0.0835
      3 C         143.8170  138.6852  165.2243 C.ar    1  UNL1        0.1147
      4 N         143.9157  138.3294  166.6781 N.ar    1  UNL1       -0.2409
      5 C         143.0191  138.9993  167.6768 C.ar    1  UNL1        0.1002
      6 C         142.0237  140.0249  167.2216 C.ar    1  UNL1        0.0338
      7 N         137.9431  144.4832  163.9470 N.3     1  UNL1       -0.3221
      8 C         138.9386  143.4576  164.4022 C.3     1  UNL1        0.0542
      9 C         140.3607  143.8568  164.6633 C.3     1  UNL1        0.0369
     10 C         141.3562  142.8312  165.1185 C.3     1  UNL1        0.0922
     11 N         140.9295  141.4063  165.3126 N.pl3   1  UNL1       -0.3064
     12 C         139.5073  141.0071  165.0514 C.3     1  UNL1        0.0922
     13 C         138.5119  142.0327  164.5963 C.3     1  UNL1        0.0369
     14 H         138.4018  145.3909  163.8686 H       1  UNL1        0.1188
     15 H         137.1832  144.5437  164.6246 H       1  UNL1        0.1188
     16 C         141.1270  140.6947  168.2203 C.ar    1  UNL1        0.0044
     17 C         141.3936  142.1111  168.6361 C.ar    1  UNL1        0.0115
     18 C         140.4969  142.7809  169.6348 C.ar    1  UNL1        0.0585
     19 CL        140.7634  144.1973  170.0507 Cl      1  UNL1       -0.0822
     20 C         139.3337  142.0344  170.2176 C.ar    1  UNL1        0.0228
     21 C         139.0672  140.6181  169.8018 C.ar    1  UNL1        0.0585
     22 CL        137.9039  139.8715  170.3847 Cl      1  UNL1       -0.0822
     23 C         139.9638  139.9482  168.8031 C.ar    1  UNL1        0.0115
     24 N         142.7227  140.0667  163.3153 N.am    1  UNL1       -0.2769
     25 C         143.6524  141.0870  162.7280 C.2     1  UNL1        0.2689
     26 O         144.6807  141.7515  163.5946 O.2     1  UNL1       -0.2681
     27 H         142.0478  139.6305  162.7465 H       1  UNL1        0.1553
     28 C         143.5536  141.4428  161.2742 C.ar    1  UNL1        0.1538
     29 C         143.2168  142.7946  160.7182 C.ar    1  UNL1        0.1053
     30 N         143.2293  142.6966  159.2214 N.ar    1  UNL1       -0.2873
     31 C         142.9716  143.7109  158.1469 C.ar    1  UNL1        0.0815
     32 C         143.0583  143.3128  156.7034 C.ar    1  UNL1        0.0191
     33 C         143.4027  141.9003  156.3343 C.ar    1  UNL1        0.0046
     34 C         143.6605  140.8859  157.4088 C.ar    1  UNL1        0.0374
     35 C         143.5738  141.2841  158.8524 C.ar    1  UNL1        0.1480
     36 N         143.7742  140.5092  160.1210 N.ar    1  UNL1       -0.2218
@<TRIPOS>BOND
     1     7     8    1
     2     8     9    1
     3     9    10    1
     4    10    11    1
     5    11     1    1
     6     1     2   ar
     7     2    24    1
     8    24    25   am
     9    25    26    2
    10    25    28    1
    11    28    29   ar
    12    29    30   ar
    13    30    31   ar
    14    31    32   ar
    15    32    33   ar
    16    33    34   ar
    17    34    35   ar
    18    35    36   ar
    19     2     3   ar
    20     3     4   ar
    21     4     5   ar
    22     5     6   ar
    23     6    16    1
    24    16    17   ar
    25    17    18   ar
    26    18    19    1
    27    18    20   ar
    28    20    21   ar
    29    21    22    1
    30    21    23   ar
    31    11    12    1
    32    12    13    1
    33    13     8    1
    34     6     1   ar
    35    23    16   ar
    36    36    28   ar
    37    35    30   ar
    38     7    14    1
    39     7    15    1
    40    24    27    1
@<TRIPOS>MOLECULE
*****
 36 40 0 0 0
SMALL
GASTEIGER

@<TRIPOS>ATOM
      1 C         139.2395  140.6873  163.1798 C.ar    1  UNL1        0.0645
      2 C         138.4688  139.8636  162.1911 C.ar    1  UNL1        0.0835
      3 C         138.2484  138.4014  162.4432 C.ar    1  UNL1        0.1147
      4 N         138.7987  137.7629  163.6840 N.ar    1  UNL1       -0.2409
      5 C         139.5694  138.5867  164.6727 C.ar    1  UNL1        0.1002
      6 C         139.7898  140.0488  164.4206 C.ar    1  UNL1        0.0338
      7 N         140.1209  146.5359  162.1713 N.3     1  UNL1       -0.3221
      8 C         139.9005  145.0737  162.4234 C.3     1  UNL1        0.0542
      9 C         140.8199  144.0599  161.8094 C.3     1  UNL1        0.0369
     10 C         140.5995  142.5977  162.0615 C.3     1  UNL1        0.0922
     11 N         139.4598  142.1494  162.9276 N.pl3   1  UNL1       -0.3064
     12 C         138.5405  143.1633  163.5416 C.3     1  UNL1        0.0922
     13 C         138.7609  144.6254  163.2895 C.3     1  UNL1        0.0369
     14 H         140.9329  146.6580  161.5663 H       1  UNL1        0.1188
     15 H         140.2827  147.0132  163.0580 H       1  UNL1        0.1188
     16 C         140.5605  140.8726  165.4092 C.ar    1  UNL1        0.0044
     17 C         141.9307  141.3740  165.0613 C.ar    1  UNL1        0.0115
     18 C         142.7013  142.1978  166.0500 C.ar    1  UNL1        0.0585
     19 CL        144.0715  142.6992  165.7021 Cl      1  UNL1       -0.0822
     20 C         142.1018  142.5200  167.3867 C.ar    1  UNL1        0.0228
     21 C         140.7316  142.0185  167.7346 C.ar    1  UNL1        0.0585
     22 CL        140.1321  142.3408  169.0714 Cl      1  UNL1       -0.0822
     23 C         139.9609  141.1948  166.7460 C.ar    1  UNL1        0.0115
     24 N         137.9185  140.5020  160.9503 N.am    1  UNL1       -0.2769
     25 C         138.7076  140.4659  159.6751 C.2     1  UNL1        0.2689
     26 O         140.0470  139.7915  159.6407 O.2     1  UNL1       -0.2681
     27 H         137.0394  140.9446  160.9728 H       1  UNL1        0.1553
     28 C         138.1573  141.1043  158.4343 C.ar    1  UNL1        0.1538
     29 C         138.5360  142.4512  157.8934 C.ar    1  UNL1        0.1053
     30 N         137.7445  142.6873  156.6413 N.ar    1  UNL1       -0.2873
     31 C         137.7019  143.8406  155.6833 C.ar    1  UNL1        0.0815
     32 C         136.7913  143.7930  154.4923 C.ar    1  UNL1        0.0191
     33 C         135.9234  142.5920  154.2593 C.ar    1  UNL1        0.0046
     34 C         135.9660  141.4386  155.2173 C.ar    1  UNL1        0.0374
     35 C         136.8765  141.4863  156.4083 C.ar    1  UNL1        0.1480
     36 N         137.1317  140.5080  157.5164 N.ar    1  UNL1       -0.2218
@<TRIPOS>BOND
     1     7     8    1
     2     8     9    1
     3     9    10    1
     4    10    11    1
     5    11     1    1
     6     1     2   ar
     7     2    24    1
     8    24    25   am
     9    25    26    2
    10    25    28    1
    11    28    29   ar
    12    29    30   ar
    13    30    31   ar
    14    31    32   ar
    15    32    33   ar
    16    33    34   ar
    17    34    35   ar
    18    35    36   ar
    19     2     3   ar
    20     3     4   ar
    21     4     5   ar
    22     5     6   ar
    23     6    16    1
    24    16    17   ar
    25    17    18   ar
    26    18    19    1
    27    18    20   ar
    28    20    21   ar
    29    21    22    1
    30    21    23   ar
    31    11    12    1
    32    12    13    1
    33    13     8    1
    34     6     1   ar
    35    23    16   ar
    36    36    28   ar
    37    35    30   ar
    38     7    14    1
    39     7    15    1
    40    24    27    1
@<TRIPOS>MOLECULE
*****
 36 40 0 0 0
SMALL
GASTEIGER

@<TRIPOS>ATOM
      1 C         143.1963  140.6190  159.0297 C.ar    1  UNL1        0.0645
      2 C         143.6570  140.0855  157.7057 C.ar    1  UNL1        0.0835
      3 C         144.1499  141.0278  156.6477 C.ar    1  UNL1        0.1147
      4 N         144.1821  142.5036  156.9139 N.ar    1  UNL1       -0.2409
      5 C         143.7213  143.0372  158.2380 C.ar    1  UNL1        0.1002
      6 C         143.2285  142.0949  159.2958 C.ar    1  UNL1        0.0338
      7 N         141.2246  136.8498  163.2612 N.3     1  UNL1       -0.3221
      8 C         141.7175  137.7921  162.2033 C.3     1  UNL1        0.0542
      9 C         143.1774  138.1260  162.1175 C.3     1  UNL1        0.0369
     10 C         143.6703  139.0684  161.0596 C.3     1  UNL1        0.0922
     11 N         142.7034  139.6767  160.0875 N.pl3   1  UNL1       -0.3064
     12 C         141.2435  139.3428  160.1734 C.3     1  UNL1        0.0922
     13 C         140.7506  138.4005  161.2312 C.3     1  UNL1        0.0369
     14 H         142.0111  136.5346  163.8290 H       1  UNL1        0.1188
     15 H         140.7802  136.0450  162.8193 H       1  UNL1        0.1188
     16 C         142.7678  142.6284  160.6198 C.ar    1  UNL1        0.0044
     17 C         141.3294  143.0054  160.8171 C.ar    1  UNL1        0.0115
     18 C         140.8687  143.5390  162.1412 C.ar    1  UNL1        0.0585
     19 CL        139.4303  143.9160  162.3385 Cl      1  UNL1       -0.0822
     20 C         141.8464  143.6956  163.2679 C.ar    1  UNL1        0.0228
     21 C         143.2848  143.3186  163.0707 C.ar    1  UNL1        0.0585
     22 CL        144.2625  143.4752  164.1975 Cl      1  UNL1       -0.0822
     23 C         143.7455  142.7850  161.7466 C.ar    1  UNL1        0.0115
     24 N         143.6248  138.6096  157.4395 N.am    1  UNL1       -0.2769
     25 C         142.3822  137.9735  156.8903 C.2     1  UNL1        0.2689
     26 O         141.1720  138.8132  156.6072 O.2     1  UNL1       -0.2681
     27 H         144.4191  138.0585  157.6253 H       1  UNL1        0.1553
     28 C         142.3501  136.4977  156.6241 C.ar    1  UNL1        0.1538
     29 C         141.4639  135.7991  155.6359 C.ar    1  UNL1        0.1053
     30 N         141.7645  134.3309  155.7005 N.ar    1  UNL1       -0.2873
     31 C         141.2006  133.1573  154.9559 C.ar    1  UNL1        0.0815
     32 C         141.7087  131.7748  155.2395 C.ar    1  UNL1        0.0191
     33 C         142.7808  131.5660  156.2677 C.ar    1  UNL1        0.0046
     34 C         143.3446  132.7396  157.0123 C.ar    1  UNL1        0.0374
     35 C         142.8365  134.1221  156.7287 C.ar    1  UNL1        0.1480
     36 N         143.1984  135.4612  157.2995 N.ar    1  UNL1       -0.2218
@<TRIPOS>BOND
     1     7     8    1
     2     8     9    1
     3     9    10    1
     4    10    11    1
     5    11     1    1
     6     1     2   ar
     7     2    24    1
     8    24    25   am
     9    25    26    2
    10    25    28    1
    11    28    29   ar
    12    29    30   ar
    13    30    31   ar
    14    31    32   ar
    15    32    33   ar
    16    33    34   ar
    17    34    35   ar
    18    35    36   ar
    19     2     3   ar
    20     3     4   ar
    21     4     5   ar
    22     5     6   ar
    23     6    16    1
    24    16    17   ar
    25    17    18   ar
    26    18    19    1
    27    18    20   ar
    28    20    21   ar
    29    21    22    1
    30    21    23   ar
    31    11    12    1
    32    12    13    1
    33    13     8    1
    34     6     1   ar
    35    23    16   ar
    36    36    28   ar
    37    35    30   ar
    38     7    14    1
    39     7    15    1
    40    24    27    1
@<TRIPOS>MOLECULE
*****
 36 40 0 0 0
SMALL
GASTEIGER

@<TRIPOS>ATOM
      1 C         142.3369  141.3200  163.5545 C.ar    1  UNL1        0.0645
      2 C         143.1811  141.1598  162.3250 C.ar    1  UNL1        0.0835
      3 C         144.4655  140.3879  162.3925 C.ar    1  UNL1        0.1147
      4 N         144.9057  139.7763  163.6894 N.ar    1  UNL1       -0.2409
      5 C         144.0615  139.9365  164.9190 C.ar    1  UNL1        0.1002
      6 C         142.7771  140.7084  164.8515 C.ar    1  UNL1        0.0338
      7 N         137.1993  144.4075  163.2845 N.3     1  UNL1       -0.3221
      8 C         138.4838  143.6357  163.3520 C.3     1  UNL1        0.0542
      9 C         139.7354  144.3035  163.8392 C.3     1  UNL1        0.0369
     10 C         141.0198  143.5316  163.9067 C.3     1  UNL1        0.0922
     11 N         141.0526  142.0919  163.4870 N.pl3   1  UNL1       -0.3064
     12 C         139.8008  141.4241  162.9998 C.3     1  UNL1        0.0922
     13 C         138.5165  142.1959  162.9323 C.3     1  UNL1        0.0369
     14 H         137.3593  145.3626  163.6049 H       1  UNL1        0.1188
     15 H         136.5026  143.9611  163.8809 H       1  UNL1        0.1188
     16 C         141.9330  140.8687  166.0810 C.ar    1  UNL1        0.0044
     17 C         142.3269  141.8578  167.1375 C.ar    1  UNL1        0.0115
     18 C         141.4827  142.0180  168.3671 C.ar    1  UNL1        0.0585
     19 CL        141.8767  143.0072  169.4237 Cl      1  UNL1       -0.0822
     20 C         140.2446  141.1891  168.5400 C.ar    1  UNL1        0.0228
     21 C         139.8506  140.2000  167.4834 C.ar    1  UNL1        0.0585
     22 CL        138.6124  139.3710  167.6563 Cl      1  UNL1       -0.0822
     23 C         140.6948  140.0397  166.2539 C.ar    1  UNL1        0.0115
     24 N         142.7409  141.7714  161.0280 N.am    1  UNL1       -0.2769
     25 C         143.0193  143.2187  160.7486 C.2     1  UNL1        0.2689
     26 O         143.7379  144.0542  161.7662 O.2     1  UNL1       -0.2681
     27 H         142.2692  141.2230  160.3602 H       1  UNL1        0.1553
     28 C         142.5791  143.8303  159.4517 C.ar    1  UNL1        0.1538
     29 C         141.4915  144.8492  159.2816 C.ar    1  UNL1        0.1053
     30 N         141.3894  145.1791  157.8219 N.ar    1  UNL1       -0.2873
     31 C         140.4959  146.1163  157.0647 C.ar    1  UNL1        0.0815
     32 C         140.6270  146.2384  155.5755 C.ar    1  UNL1        0.0191
     33 C         141.6515  145.4233  154.8434 C.ar    1  UNL1        0.0046
     34 C         142.5450  144.4861  155.6005 C.ar    1  UNL1        0.0374
     35 C         142.4139  144.3640  157.0897 C.ar    1  UNL1        0.1480
     36 N         143.1492  143.5304  158.0970 N.ar    1  UNL1       -0.2218
@<TRIPOS>BOND
     1     7     8    1
     2     8     9    1
     3     9    10    1
     4    10    11    1
     5    11     1    1
     6     1     2   ar
     7     2    24    1
     8    24    25   am
     9    25    26    2
    10    25    28    1
    11    28    29   ar
    12    29    30   ar
    13    30    31   ar
    14    31    32   ar
    15    32    33   ar
    16    33    34   ar
    17    34    35   ar
    18    35    36   ar
    19     2     3   ar
    20     3     4   ar
    21     4     5   ar
    22     5     6   ar
    23     6    16    1
    24    16    17   ar
    25    17    18   ar
    26    18    19    1
    27    18    20   ar
    28    20    21   ar
    29    21    22    1
    30    21    23   ar
    31    11    12    1
    32    12    13    1
    33    13     8    1
    34     6     1   ar
    35    23    16   ar
    36    36    28   ar
    37    35    30   ar
    38     7    14    1
    39     7    15    1
    40    24    27    1
@<TRIPOS>MOLECULE
*****
 36 40 0 0 0
SMALL
GASTEIGER

@<TRIPOS>ATOM
      1 C         140.1125  140.0483  162.5057 C.ar    1  UNL1        0.0645
      2 C         139.3443  139.8951  161.2265 C.ar    1  UNL1        0.0835
      3 C         138.3296  138.7991  161.0877 C.ar    1  UNL1        0.1147
      4 N         138.0832  137.8563  162.2281 N.ar    1  UNL1       -0.2409
      5 C         138.8515  138.0096  163.5073 C.ar    1  UNL1        0.1002
      6 C         139.8662  139.1056  163.6460 C.ar    1  UNL1        0.0338
      7 N         144.1710  144.4325  163.0608 N.3     1  UNL1       -0.3221
      8 C         143.1564  143.3364  162.9220 C.3     1  UNL1        0.0542
      9 C         143.5598  142.0087  162.3525 C.3     1  UNL1        0.0369
     10 C         142.5452  140.9126  162.2137 C.3     1  UNL1        0.0922
     11 N         141.1271  141.1443  162.6444 N.pl3   1  UNL1       -0.3064
     12 C         140.7238  142.4722  163.2139 C.3     1  UNL1        0.0922
     13 C         141.7384  143.5681  163.3527 C.3     1  UNL1        0.0369
     14 H         145.0752  144.1037  162.7221 H       1  UNL1        0.1188
     15 H         144.2519  144.6987  164.0422 H       1  UNL1        0.1188
     16 C         140.6344  139.2588  164.9252 C.ar    1  UNL1        0.0044
     17 C         141.9529  138.5641  165.0960 C.ar    1  UNL1        0.0115
     18 C         142.7211  138.7174  166.3752 C.ar    1  UNL1        0.0585
     19 CL        144.0396  138.0228  166.5461 Cl      1  UNL1       -0.0822
     20 C         142.1709  139.5652  167.4836 C.ar    1  UNL1        0.0228
     21 C         140.8524  140.2598  167.3128 C.ar    1  UNL1        0.0585
     22 CL        140.3022  141.1076  168.4212 Cl      1  UNL1       -0.0822
     23 C         140.0842  140.1066  166.0336 C.ar    1  UNL1        0.0115
     24 N         139.5906  140.8379  160.0861 N.am    1  UNL1       -0.2769
     25 C         138.8290  142.1275  160.0012 C.2     1  UNL1        0.2689
     26 O         137.8211  142.4741  161.0566 O.2     1  UNL1       -0.2681
     27 H         140.2522  140.6104  159.3934 H       1  UNL1        0.1553
     28 C         139.0754  143.0703  158.8608 C.ar    1  UNL1        0.1538
     29 C         138.6176  142.8803  157.4451 C.ar    1  UNL1        0.1053
     30 N         139.0821  144.0612  156.6452 N.ar    1  UNL1       -0.2873
     31 C         138.9229  144.4177  155.1970 C.ar    1  UNL1        0.0815
     32 C         139.5088  145.6941  154.6701 C.ar    1  UNL1        0.0191
     33 C         140.2537  146.6139  155.5915 C.ar    1  UNL1        0.0046
     34 C         140.4128  146.2574  157.0398 C.ar    1  UNL1        0.0374
     35 C         139.8270  144.9810  157.5666 C.ar    1  UNL1        0.1480
     36 N         139.8229  144.3686  158.9359 N.ar    1  UNL1       -0.2218
@<TRIPOS>BOND
     1     7     8    1
     2     8     9    1
     3     9    10    1
     4    10    11    1
     5    11     1    1
     6     1     2   ar
     7     2    24    1
     8    24    25   am
     9    25    26    2
    10    25    28    1
    11    28    29   ar
    12    29    30   ar
    13    30    31   ar
    14    31    32   ar
    15    32    33   ar
    16    33    34   ar
    17    34    35   ar
    18    35    36   ar
    19     2     3   ar
    20     3     4   ar
    21     4     5   ar
    22     5     6   ar
    23     6    16    1
    24    16    17   ar
    25    17    18   ar
    26    18    19    1
    27    18    20   ar
    28    20    21   ar
    29    21    22    1
    30    21    23   ar
    31    11    12    1
    32    12    13    1
    33    13     8    1
    34     6     1   ar
    35    23    16   ar
    36    36    28   ar
    37    35    30   ar
    38     7    14    1
    39     7    15    1
    40    24    27    1
