@<TRIPOS>MOLECULE
*****
 34 37 0 0 0
SMALL
GASTEIGER

@<TRIPOS>ATOM
      1 C         140.1544  138.5159  163.4276 C.ar    1  UNL1        0.0193
      2 C         138.8903  137.7806  163.7615 C.ar    1  UNL1        0.1002
      3 N         138.2946  137.8976  165.1331 N.ar    1  UNL1       -0.2296
      4 C         138.9630  138.7499  166.1709 C.ar    1  UNL1        0.1253
      5 N         138.3672  138.8669  167.5426 N.pl3   1  UNL1       -0.3426
      6 C         140.2270  139.4851  165.8370 C.ar    1  UNL1        0.0312
      7 C         140.8227  139.3681  164.4654 C.ar    1  UNL1        0.0043
      8 H         137.5376  138.3843  167.7617 H       1  UNL1        0.1437
      9 H         138.8059  139.4262  168.2237 H       1  UNL1        0.1437
     10 C         141.9416  138.1650  159.3126 C.ar    1  UNL1        0.0536
     11 C         140.5630  138.7302  159.4859 C.ar    1  UNL1        0.0045
     12 C         139.9673  138.8471  160.8575 C.ar    1  UNL1        0.0002
     13 C         140.7502  138.3989  162.0559 C.ar    1  UNL1        0.0015
     14 C         142.1287  137.8338  161.8827 C.ar    1  UNL1        0.0002
     15 C         142.7245  137.7168  160.5110 C.ar    1  UNL1        0.0045
     16 C         146.1210  142.3808  155.8472 C.3     1  UNL1        0.0897
     17 N         145.2251  141.2976  156.3706 N.3     1  UNL1       -0.2686
     18 C         144.9249  140.0975  155.5224 C.3     1  UNL1        0.0939
     19 C         144.0289  139.0143  156.0459 C.3     1  UNL1        0.1110
     20 N         143.4332  139.1312  157.4175 N.am    1  UNL1       -0.2732
     21 C         142.5373  138.0480  157.9410 C.2     1  UNL1        0.2491
     22 O         142.2371  136.8479  157.0928 O.2     1  UNL1       -0.2699
     23 C         143.7335  140.3314  158.2657 C.3     1  UNL1        0.1110
     24 C         144.6294  141.4146  157.7422 C.3     1  UNL1        0.0939
     25 C         140.8954  140.3374  166.8748 C.ar    1  UNL1        0.0027
     26 C         142.0257  139.7803  167.6883 C.ar    1  UNL1        0.0000
     27 C         142.6941  140.6326  168.7261 C.ar    1  UNL1        0.0039
     28 C         142.2321  142.0419  168.9503 C.ar    1  UNL1        0.0714
     29 C         141.1018  142.5990  168.1367 C.ar    1  UNL1        0.0039
     30 C         140.4334  141.7467  167.0990 C.ar    1  UNL1        0.0000
     31 C         142.9005  142.8942  169.9881 C.3     1  UNL1        0.4186
     32 F         143.5688  143.7464  171.0258 F       1  UNL1       -0.1659
     33 F         141.6746  143.7546  170.0710 F       1  UNL1       -0.1659
     34 F         144.1264  142.0338  169.9051 F       1  UNL1       -0.1659
@<TRIPOS>BOND
     1    16    17    1
     2    17    18    1
     3    18    19    1
     4    19    20    1
     5    20    21   am
     6    21    22    2
     7    21    10    1
     8    10    11   ar
     9    11    12   ar
    10    12    13   ar
    11    13     1    1
    12     1     2   ar
    13     2     3   ar
    14     3     4   ar
    15     4     5    1
    16     4     6   ar
    17     6    25    1
    18    25    26   ar
    19    26    27   ar
    20    27    28   ar
    21    28    31    1
    22    31    32    1
    23    31    33    1
    24    31    34    1
    25    28    29   ar
    26    29    30   ar
    27     6     7   ar
    28    13    14   ar
    29    14    15   ar
    30    20    23    1
    31    23    24    1
    32    24    17    1
    33    15    10   ar
    34     7     1   ar
    35    30    25   ar
    36     5     8    1
    37     5     9    1
@<TRIPOS>MOLECULE
*****
 34 37 0 0 0
SMALL
GASTEIGER

@<TRIPOS>ATOM
      1 C         138.7481  139.6277  165.7931 C.ar    1  UNL1        0.0193
      2 C         137.7479  138.8583  166.6039 C.ar    1  UNL1        0.1002
      3 N         137.8183  138.8834  168.1020 N.ar    1  UNL1       -0.2296
      4 C         138.8890  139.6779  168.7893 C.ar    1  UNL1        0.1253
      5 N         138.9594  139.7030  170.2875 N.pl3   1  UNL1       -0.3426
      6 C         139.8892  140.4473  167.9785 C.ar    1  UNL1        0.0312
      7 C         139.8188  140.4223  166.4804 C.ar    1  UNL1        0.0043
      8 H         138.3029  139.1980  170.8197 H       1  UNL1        0.1437
      9 H         139.6621  140.2244  170.7386 H       1  UNL1        0.1437
     10 C         138.5369  139.5526  161.2986 C.ar    1  UNL1        0.0536
     11 C         138.6608  140.8609  162.0219 C.ar    1  UNL1        0.0045
     12 C         138.7312  140.8859  163.5200 C.ar    1  UNL1        0.0002
     13 C         138.6777  139.6027  164.2949 C.ar    1  UNL1        0.0015
     14 C         138.5538  138.2944  163.5717 C.ar    1  UNL1        0.0002
     15 C         138.4834  138.2694  162.0735 C.ar    1  UNL1        0.0045
     16 C         143.2167  137.7349  156.6034 C.3     1  UNL1        0.0897
     17 N         142.0292  138.1831  157.4027 N.3     1  UNL1       -0.2686
     18 C         140.7712  138.6063  156.7038 C.3     1  UNL1        0.0939
     19 C         139.5836  139.0544  157.5031 C.3     1  UNL1        0.1110
     20 N         139.6540  139.0795  159.0012 N.am    1  UNL1       -0.2732
     21 C         138.4665  139.5276  159.8005 C.2     1  UNL1        0.2491
     22 O         137.2085  139.9508  159.1017 O.2     1  UNL1       -0.2699
     23 C         140.9120  138.6563  159.7001 C.3     1  UNL1        0.1110
     24 C         142.0996  138.2081  158.9008 C.3     1  UNL1        0.0939
     25 C         140.9599  141.2419  168.6658 C.ar    1  UNL1        0.0027
     26 C         140.6350  142.5788  169.2632 C.ar    1  UNL1        0.0000
     27 C         141.7057  143.3733  169.9505 C.ar    1  UNL1        0.0039
     28 C         143.1013  142.8309  170.0404 C.ar    1  UNL1        0.0714
     29 C         143.4262  141.4940  169.4430 C.ar    1  UNL1        0.0039
     30 C         142.3555  140.6994  168.7557 C.ar    1  UNL1        0.0000
     31 C         144.1720  143.6254  170.7277 C.3     1  UNL1        0.4186
     32 F         145.2427  144.4199  171.4150 F       1  UNL1       -0.1659
     33 F         143.1330  144.5714  171.2527 F       1  UNL1       -0.1659
     34 F         145.2110  142.6794  170.2027 F       1  UNL1       -0.1659
@<TRIPOS>BOND
     1    16    17    1
     2    17    18    1
     3    18    19    1
     4    19    20    1
     5    20    21   am
     6    21    22    2
     7    21    10    1
     8    10    11   ar
     9    11    12   ar
    10    12    13   ar
    11    13     1    1
    12     1     2   ar
    13     2     3   ar
    14     3     4   ar
    15     4     5    1
    16     4     6   ar
    17     6    25    1
    18    25    26   ar
    19    26    27   ar
    20    27    28   ar
    21    28    31    1
    22    31    32    1
    23    31    33    1
    24    31    34    1
    25    28    29   ar
    26    29    30   ar
    27     6     7   ar
    28    13    14   ar
    29    14    15   ar
    30    20    23    1
    31    23    24    1
    32    24    17    1
    33    15    10   ar
    34     7     1   ar
    35    30    25   ar
    36     5     8    1
    37     5     9    1
@<TRIPOS>MOLECULE
*****
 34 37 0 0 0
SMALL
GASTEIGER

@<TRIPOS>ATOM
      1 C         140.4481  138.8082  163.0810 C.ar    1  UNL1        0.0193
      2 C         139.2131  137.9932  163.3273 C.ar    1  UNL1        0.1002
      3 N         138.5729  137.9930  164.6837 N.ar    1  UNL1       -0.2296
      4 C         139.1676  138.8077  165.7939 C.ar    1  UNL1        0.1253
      5 N         138.5274  138.8075  167.1504 N.pl3   1  UNL1       -0.3426
      6 C         140.4026  139.6227  165.5476 C.ar    1  UNL1        0.0312
      7 C         141.0428  139.6229  164.1911 C.ar    1  UNL1        0.0043
      8 H         137.7168  138.2726  167.3121 H       1  UNL1        0.1437
      9 H         138.9177  139.3422  167.8791 H       1  UNL1        0.1437
     10 C         142.3689  138.8089  159.0114 C.ar    1  UNL1        0.0536
     11 C         142.8165  137.8255  160.0520 C.ar    1  UNL1        0.0045
     12 C         142.1762  137.8253  161.4084 C.ar    1  UNL1        0.0002
     13 C         141.0883  138.8084  161.7244 C.ar    1  UNL1        0.0015
     14 C         140.6407  139.7918  160.6840 C.ar    1  UNL1        0.0002
     15 C         141.2810  139.7920  159.3274 C.ar    1  UNL1        0.0045
     16 C         140.5056  135.7294  153.1553 C.3     1  UNL1        0.0897
     17 N         141.1315  136.4993  154.2802 N.3     1  UNL1       -0.2686
     18 C         142.3977  137.2695  154.0487 C.3     1  UNL1        0.0939
     19 C         143.0236  138.0394  155.1736 C.3     1  UNL1        0.1110
     20 N         142.3833  138.0392  156.5301 N.am    1  UNL1       -0.2732
     21 C         143.0092  138.8091  157.6550 C.2     1  UNL1        0.2491
     22 O         144.2753  139.5792  157.4235 O.2     1  UNL1       -0.2699
     23 C         141.1171  137.2690  156.7616 C.3     1  UNL1        0.1110
     24 C         140.4912  136.4991  155.6366 C.3     1  UNL1        0.0939
     25 C         140.9973  140.4375  166.6578 C.ar    1  UNL1        0.0027
     26 C         140.4654  141.8093  166.9492 C.ar    1  UNL1        0.0000
     27 C         141.0601  142.6241  168.0594 C.ar    1  UNL1        0.0039
     28 C         142.1867  142.0670  168.8781 C.ar    1  UNL1        0.0714
     29 C         142.7186  140.6951  168.5867 C.ar    1  UNL1        0.0039
     30 C         142.1239  139.8803  167.4765 C.ar    1  UNL1        0.0000
     31 C         142.7815  142.8817  169.9883 C.3     1  UNL1        0.4186
     32 F         143.3762  143.6965  171.0985 F       1  UNL1       -0.1659
     33 F         144.0003  142.0075  169.9770 F       1  UNL1       -0.1659
     34 F         141.5626  143.7559  169.9996 F       1  UNL1       -0.1659
@<TRIPOS>BOND
     1    16    17    1
     2    17    18    1
     3    18    19    1
     4    19    20    1
     5    20    21   am
     6    21    22    2
     7    21    10    1
     8    10    11   ar
     9    11    12   ar
    10    12    13   ar
    11    13     1    1
    12     1     2   ar
    13     2     3   ar
    14     3     4   ar
    15     4     5    1
    16     4     6   ar
    17     6    25    1
    18    25    26   ar
    19    26    27   ar
    20    27    28   ar
    21    28    31    1
    22    31    32    1
    23    31    33    1
    24    31    34    1
    25    28    29   ar
    26    29    30   ar
    27     6     7   ar
    28    13    14   ar
    29    14    15   ar
    30    20    23    1
    31    23    24    1
    32    24    17    1
    33    15    10   ar
    34     7     1   ar
    35    30    25   ar
    36     5     8    1
    37     5     9    1
@<TRIPOS>MOLECULE
*****
 34 37 0 0 0
SMALL
GASTEIGER

@<TRIPOS>ATOM
      1 C         143.3023  139.1727  160.6236 C.ar    1  UNL1        0.0193
      2 C         143.6787  140.4863  160.0049 C.ar    1  UNL1        0.1002
      3 N         143.6530  140.6478  158.5139 N.ar    1  UNL1       -0.2296
      4 C         143.2509  139.4957  157.6415 C.ar    1  UNL1        0.1253
      5 N         143.2252  139.6572  156.1504 N.pl3   1  UNL1       -0.3426
      6 C         142.8745  138.1821  158.2602 C.ar    1  UNL1        0.0312
      7 C         142.9002  138.0206  159.7512 C.ar    1  UNL1        0.0043
      8 H         143.4723  140.5194  155.7444 H       1  UNL1        0.1437
      9 H         142.9613  138.9011  155.5778 H       1  UNL1        0.1437
     10 C         143.3793  138.6881  165.0968 C.ar    1  UNL1        0.0536
     11 C         142.3278  137.9914  164.2849 C.ar    1  UNL1        0.0045
     12 C         142.3022  138.1530  162.7939 C.ar    1  UNL1        0.0002
     13 C         143.3280  139.0112  162.1147 C.ar    1  UNL1        0.0015
     14 C         144.3794  139.7078  162.9265 C.ar    1  UNL1        0.0002
     15 C         144.4051  139.5462  164.4177 C.ar    1  UNL1        0.0045
     16 C         139.7913  141.8581  170.0291 C.3     1  UNL1        0.0897
     17 N         140.6947  141.0252  169.1688 N.3     1  UNL1       -0.2686
     18 C         141.6238  140.0307  169.7995 C.3     1  UNL1        0.0939
     19 C         142.5272  139.1978  168.9392 C.3     1  UNL1        0.1110
     20 N         142.5016  139.3594  167.4481 N.am    1  UNL1       -0.2732
     21 C         143.4050  138.5265  166.5878 C.2     1  UNL1        0.2491
     22 O         144.3340  137.5320  167.2186 O.2     1  UNL1       -0.2699
     23 C         141.5725  140.3539  166.8174 C.3     1  UNL1        0.1110
     24 C         140.6691  141.1868  167.6777 C.3     1  UNL1        0.0939
     25 C         142.4723  137.0300  157.3878 C.ar    1  UNL1        0.0027
     26 C         143.2484  135.7473  157.4345 C.ar    1  UNL1        0.0000
     27 C         142.8463  134.5952  156.5622 C.ar    1  UNL1        0.0039
     28 C         141.6681  134.7259  155.6431 C.ar    1  UNL1        0.0714
     29 C         140.8920  136.0086  155.5964 C.ar    1  UNL1        0.0039
     30 C         141.2941  137.1607  156.4688 C.ar    1  UNL1        0.0000
     31 C         141.2660  133.5738  154.7708 C.3     1  UNL1        0.4186
     32 F         140.8639  132.4217  153.8984 F       1  UNL1       -0.1659
     33 F         141.6753  132.6146  155.8489 F       1  UNL1       -0.1659
     34 F         140.8567  134.5330  153.6926 F       1  UNL1       -0.1659
@<TRIPOS>BOND
     1    16    17    1
     2    17    18    1
     3    18    19    1
     4    19    20    1
     5    20    21   am
     6    21    22    2
     7    21    10    1
     8    10    11   ar
     9    11    12   ar
    10    12    13   ar
    11    13     1    1
    12     1     2   ar
    13     2     3   ar
    14     3     4   ar
    15     4     5    1
    16     4     6   ar
    17     6    25    1
    18    25    26   ar
    19    26    27   ar
    20    27    28   ar
    21    28    31    1
    22    31    32    1
    23    31    33    1
    24    31    34    1
    25    28    29   ar
    26    29    30   ar
    27     6     7   ar
    28    13    14   ar
    29    14    15   ar
    30    20    23    1
    31    23    24    1
    32    24    17    1
    33    15    10   ar
    34     7     1   ar
    35    30    25   ar
    36     5     8    1
    37     5     9    1
@<TRIPOS>MOLECULE
*****
 34 37 0 0 0
SMALL
GASTEIGER

@<TRIPOS>ATOM
      1 C         142.2580  141.9760  161.0329 C.ar    1  UNL1        0.0193
      2 C         143.2710  143.0159  160.6555 C.ar    1  UNL1        0.1002
      3 N         143.7839  143.9735  161.6898 N.ar    1  UNL1       -0.2296
      4 C         143.2838  143.8912  163.1016 C.ar    1  UNL1        0.1253
      5 N         143.7967  144.8488  164.1360 N.pl3   1  UNL1       -0.3426
      6 C         142.2708  142.8513  163.4791 C.ar    1  UNL1        0.0312
      7 C         141.7579  141.8937  162.4447 C.ar    1  UNL1        0.0043
      8 H         144.4616  145.5314  163.8883 H       1  UNL1        0.1437
      9 H         143.4685  144.7948  165.0626 H       1  UNL1        0.1437
     10 C         140.7192  139.1031  157.9298 C.ar    1  UNL1        0.0536
     11 C         140.3613  138.9101  159.3737 C.ar    1  UNL1        0.0045
     12 C         140.8743  139.8677  160.4080 C.ar    1  UNL1        0.0002
     13 C         141.7451  141.0184  159.9985 C.ar    1  UNL1        0.0015
     14 C         142.1029  141.2114  158.5547 C.ar    1  UNL1        0.0002
     15 C         141.5900  140.2538  157.5203 C.ar    1  UNL1        0.0045
     16 C         143.4615  133.3383  155.3812 C.3     1  UNL1        0.0897
     17 N         142.6477  134.5401  155.7598 N.3     1  UNL1       -0.2686
     18 C         141.3209  134.7843  155.1041 C.3     1  UNL1        0.0939
     19 C         140.5071  135.9861  155.4827 C.3     1  UNL1        0.1110
     20 N         141.0201  136.9437  156.5170 N.am    1  UNL1       -0.2732
     21 C         140.2062  138.1455  156.8956 C.2     1  UNL1        0.2491
     22 O         138.8794  138.3897  156.2399 O.2     1  UNL1       -0.2699
     23 C         142.3468  136.6995  157.1727 C.3     1  UNL1        0.1110
     24 C         143.1607  135.4977  156.7941 C.3     1  UNL1        0.0939
     25 C         141.7708  142.7690  164.8909 C.ar    1  UNL1        0.0027
     26 C         140.4355  143.3512  165.2487 C.ar    1  UNL1        0.0000
     27 C         139.9355  143.2688  166.6605 C.ar    1  UNL1        0.0039
     28 C         140.7706  142.6043  167.7144 C.ar    1  UNL1        0.0714
     29 C         142.1059  142.0222  167.3566 C.ar    1  UNL1        0.0039
     30 C         142.6060  142.1045  165.9448 C.ar    1  UNL1        0.0000
     31 C         140.2706  142.5220  169.1262 C.3     1  UNL1        0.4186
     32 F         139.7705  142.4397  170.5380 F       1  UNL1       -0.1659
     33 F         140.3110  141.0243  169.0532 F       1  UNL1       -0.1659
     34 F         140.2302  144.0197  169.1993 F       1  UNL1       -0.1659
@<TRIPOS>BOND
     1    16    17    1
     2    17    18    1
     3    18    19    1
     4    19    20    1
     5    20    21   am
     6    21    22    2
     7    21    10    1
     8    10    11   ar
     9    11    12   ar
    10    12    13   ar
    11    13     1    1
    12     1     2   ar
    13     2     3   ar
    14     3     4   ar
    15     4     5    1
    16     4     6   ar
    17     6    25    1
    18    25    26   ar
    19    26    27   ar
    20    27    28   ar
    21    28    31    1
    22    31    32    1
    23    31    33    1
    24    31    34    1
    25    28    29   ar
    26    29    30   ar
    27     6     7   ar
    28    13    14   ar
    29    14    15   ar
    30    20    23    1
    31    23    24    1
    32    24    17    1
    33    15    10   ar
    34     7     1   ar
    35    30    25   ar
    36     5     8    1
    37     5     9    1
@<TRIPOS>MOLECULE
*****
 34 37 0 0 0
SMALL
GASTEIGER

@<TRIPOS>ATOM
      1 C         143.3305  141.7935  161.4659 C.ar    1  UNL1        0.0193
      2 C         144.2303  142.9494  161.1432 C.ar    1  UNL1        0.1002
      3 N         144.4542  144.0314  162.1576 N.ar    1  UNL1       -0.2296
      4 C         143.7782  143.9576  163.4946 C.ar    1  UNL1        0.1253
      5 N         144.0021  145.0397  164.5090 N.pl3   1  UNL1       -0.3426
      6 C         142.8784  142.8017  163.8173 C.ar    1  UNL1        0.0312
      7 C         142.6545  141.7196  162.8030 C.ar    1  UNL1        0.0043
      8 H         144.5927  145.7984  164.2972 H       1  UNL1        0.1437
      9 H         143.5585  144.9913  165.3866 H       1  UNL1        0.1437
     10 C         142.6587  138.5471  158.4229 C.ar    1  UNL1        0.0536
     11 C         142.1244  138.3916  159.8159 C.ar    1  UNL1        0.0045
     12 C         142.3483  139.4737  160.8302 C.ar    1  UNL1        0.0002
     13 C         143.1065  140.7113  160.4515 C.ar    1  UNL1        0.0015
     14 C         143.6408  140.8668  159.0586 C.ar    1  UNL1        0.0002
     15 C         143.4169  139.7847  158.0442 C.ar    1  UNL1        0.0045
     16 C         137.5785  137.6114  153.8879 C.3     1  UNL1        0.0897
     17 N         138.7925  137.5748  154.7681 N.3     1  UNL1       -0.2686
     18 C         139.7827  136.4560  154.6339 C.3     1  UNL1        0.0939
     19 C         140.9967  136.4194  155.5141 C.3     1  UNL1        0.1110
     20 N         141.2207  137.5016  156.5284 N.am    1  UNL1       -0.2732
     21 C         142.4348  137.4649  157.4086 C.2     1  UNL1        0.2491
     22 O         143.4249  136.3462  157.2744 O.2     1  UNL1       -0.2699
     23 C         140.2305  138.6203  156.6625 C.3     1  UNL1        0.1110
     24 C         139.0165  138.6569  155.7824 C.3     1  UNL1        0.0939
     25 C         142.2025  142.7278  165.1544 C.ar    1  UNL1        0.0027
     26 C         142.9432  142.1849  166.3403 C.ar    1  UNL1        0.0000
     27 C         142.2673  142.1110  167.6773 C.ar    1  UNL1        0.0039
     28 C         140.8506  142.5801  167.8284 C.ar    1  UNL1        0.0714
     29 C         140.1099  143.1231  166.6425 C.ar    1  UNL1        0.0039
     30 C         140.7858  143.1969  165.3055 C.ar    1  UNL1        0.0000
     31 C         140.1747  142.5063  169.1655 C.3     1  UNL1        0.4186
     32 F         139.4988  142.4324  170.5025 F       1  UNL1       -0.1659
     33 F         140.2485  143.9996  169.2853 F       1  UNL1       -0.1659
     34 F         140.1008  141.0129  169.0456 F       1  UNL1       -0.1659
@<TRIPOS>BOND
     1    16    17    1
     2    17    18    1
     3    18    19    1
     4    19    20    1
     5    20    21   am
     6    21    22    2
     7    21    10    1
     8    10    11   ar
     9    11    12   ar
    10    12    13   ar
    11    13     1    1
    12     1     2   ar
    13     2     3   ar
    14     3     4   ar
    15     4     5    1
    16     4     6   ar
    17     6    25    1
    18    25    26   ar
    19    26    27   ar
    20    27    28   ar
    21    28    31    1
    22    31    32    1
    23    31    33    1
    24    31    34    1
    25    28    29   ar
    26    29    30   ar
    27     6     7   ar
    28    13    14   ar
    29    14    15   ar
    30    20    23    1
    31    23    24    1
    32    24    17    1
    33    15    10   ar
    34     7     1   ar
    35    30    25   ar
    36     5     8    1
    37     5     9    1
@<TRIPOS>MOLECULE
*****
 34 37 0 0 0
SMALL
GASTEIGER

@<TRIPOS>ATOM
      1 C         139.3480  139.1304  164.6343 C.ar    1  UNL1        0.0193
      2 C         138.1502  138.4500  165.2279 C.ar    1  UNL1        0.1002
      3 N         137.8586  138.5880  166.6927 N.ar    1  UNL1       -0.2296
      4 C         138.7648  139.4062  167.5641 C.ar    1  UNL1        0.1253
      5 N         138.4732  139.5441  169.0290 N.pl3   1  UNL1       -0.3426
      6 C         139.9627  140.0865  166.9705 C.ar    1  UNL1        0.0312
      7 C         140.2542  139.9486  165.5056 C.ar    1  UNL1        0.0043
      8 H         137.6870  139.0976  169.4186 H       1  UNL1        0.1437
      9 H         139.0680  140.0812  169.6009 H       1  UNL1        0.1437
     10 C         140.2229  138.7166  160.2395 C.ar    1  UNL1        0.0536
     11 C         141.0594  137.9800  161.2434 C.ar    1  UNL1        0.0045
     12 C         140.7677  138.1179  162.7083 C.ar    1  UNL1        0.0002
     13 C         139.6396  138.9925  163.1694 C.ar    1  UNL1        0.0015
     14 C         138.8031  139.7290  162.1655 C.ar    1  UNL1        0.0002
     15 C         139.0948  139.5911  160.7006 C.ar    1  UNL1        0.0045
     16 C         145.5726  140.8628  156.4947 C.3     1  UNL1        0.0897
     17 N         144.3081  140.2918  157.0647 N.3     1  UNL1       -0.2686
     18 C         143.3352  139.5828  156.1698 C.3     1  UNL1        0.0939
     19 C         142.0707  139.0118  156.7398 C.3     1  UNL1        0.1110
     20 N         141.7791  139.1497  158.2047 N.am    1  UNL1       -0.2732
     21 C         140.5145  138.5787  158.7747 C.2     1  UNL1        0.2491
     22 O         139.5417  137.8697  157.8798 O.2     1  UNL1       -0.2699
     23 C         142.7519  139.8587  159.0995 C.3     1  UNL1        0.1110
     24 C         144.0165  140.4297  158.5295 C.3     1  UNL1        0.0939
     25 C         140.8689  140.9048  167.8418 C.ar    1  UNL1        0.0027
     26 C         142.1907  140.3480  168.2811 C.ar    1  UNL1        0.0000
     27 C         143.0969  141.1663  169.1524 C.ar    1  UNL1        0.0039
     28 C         142.6814  142.5413  169.5845 C.ar    1  UNL1        0.0714
     29 C         141.3597  143.0980  169.1452 C.ar    1  UNL1        0.0039
     30 C         140.4534  142.2798  168.2739 C.ar    1  UNL1        0.0000
     31 C         143.5876  143.3595  170.4558 C.3     1  UNL1        0.4186
     32 F         144.4939  144.1778  171.3271 F       1  UNL1       -0.1659
     33 F         142.4393  144.2590  170.8055 F       1  UNL1       -0.1659
     34 F         144.7360  142.4601  170.1061 F       1  UNL1       -0.1659
@<TRIPOS>BOND
     1    16    17    1
     2    17    18    1
     3    18    19    1
     4    19    20    1
     5    20    21   am
     6    21    22    2
     7    21    10    1
     8    10    11   ar
     9    11    12   ar
    10    12    13   ar
    11    13     1    1
    12     1     2   ar
    13     2     3   ar
    14     3     4   ar
    15     4     5    1
    16     4     6   ar
    17     6    25    1
    18    25    26   ar
    19    26    27   ar
    20    27    28   ar
    21    28    31    1
    22    31    32    1
    23    31    33    1
    24    31    34    1
    25    28    29   ar
    26    29    30   ar
    27     6     7   ar
    28    13    14   ar
    29    14    15   ar
    30    20    23    1
    31    23    24    1
    32    24    17    1
    33    15    10   ar
    34     7     1   ar
    35    30    25   ar
    36     5     8    1
    37     5     9    1
@<TRIPOS>MOLECULE
*****
 34 37 0 0 0
SMALL
GASTEIGER

@<TRIPOS>ATOM
      1 C         139.5802  141.6139  161.1740 C.ar    1  UNL1        0.0193
      2 C         138.4550  142.5628  160.8855 C.ar    1  UNL1        0.1002
      3 N         137.5992  143.0742  162.0062 N.ar    1  UNL1       -0.2296
      4 C         137.8686  142.6367  163.4154 C.ar    1  UNL1        0.1253
      5 N         137.0128  143.1481  164.5362 N.pl3   1  UNL1       -0.3426
      6 C         138.9939  141.6878  163.7040 C.ar    1  UNL1        0.0312
      7 C         139.8497  141.1764  162.5833 C.ar    1  UNL1        0.0043
      8 H         136.2742  143.7710  164.3468 H       1  UNL1        0.1437
      9 H         137.1896  142.8610  165.4611 H       1  UNL1        0.1437
     10 C         142.1478  140.0796  157.8118 C.ar    1  UNL1        0.0536
     11 C         140.6739  140.2670  157.6048 C.ar    1  UNL1        0.0045
     12 C         139.8182  140.7784  158.7255 C.ar    1  UNL1        0.0002
     13 C         140.4361  141.1025  160.0533 C.ar    1  UNL1        0.0015
     14 C         141.9099  140.9152  160.2604 C.ar    1  UNL1        0.0002
     15 C         142.7657  140.4037  159.1397 C.ar    1  UNL1        0.0045
     16 C         143.9000  133.6701  156.0518 C.3     1  UNL1        0.0897
     17 N         143.6759  135.1446  156.2116 N.3     1  UNL1       -0.2686
     18 C         144.3076  136.1077  155.2508 C.3     1  UNL1        0.0939
     19 C         144.0835  137.5823  155.4106 C.3     1  UNL1        0.1110
     20 N         143.2277  138.0937  156.5313 N.am    1  UNL1       -0.2732
     21 C         143.0036  139.5682  156.6911 C.2     1  UNL1        0.2491
     22 O         143.6353  140.5313  155.7303 O.2     1  UNL1       -0.2699
     23 C         142.5960  137.1306  157.4922 C.3     1  UNL1        0.1110
     24 C         142.8201  135.6560  157.3324 C.3     1  UNL1        0.0939
     25 C         139.2634  141.2503  165.1132 C.ar    1  UNL1        0.0027
     26 C         138.5989  140.0203  165.6567 C.ar    1  UNL1        0.0000
     27 C         138.8683  139.5828  167.0660 C.ar    1  UNL1        0.0039
     28 C         139.8023  140.3753  167.9317 C.ar    1  UNL1        0.0714
     29 C         140.4669  141.6053  167.3882 C.ar    1  UNL1        0.0039
     30 C         140.1974  142.0428  165.9790 C.ar    1  UNL1        0.0000
     31 C         140.0718  139.9378  169.3410 C.3     1  UNL1        0.4186
     32 F         140.3413  139.5003  170.7502 F       1  UNL1       -0.1659
     33 F         141.4715  139.5599  168.9560 F       1  UNL1       -0.1659
     34 F         138.6722  140.3157  169.7259 F       1  UNL1       -0.1659
@<TRIPOS>BOND
     1    16    17    1
     2    17    18    1
     3    18    19    1
     4    19    20    1
     5    20    21   am
     6    21    22    2
     7    21    10    1
     8    10    11   ar
     9    11    12   ar
    10    12    13   ar
    11    13     1    1
    12     1     2   ar
    13     2     3   ar
    14     3     4   ar
    15     4     5    1
    16     4     6   ar
    17     6    25    1
    18    25    26   ar
    19    26    27   ar
    20    27    28   ar
    21    28    31    1
    22    31    32    1
    23    31    33    1
    24    31    34    1
    25    28    29   ar
    26    29    30   ar
    27     6     7   ar
    28    13    14   ar
    29    14    15   ar
    30    20    23    1
    31    23    24    1
    32    24    17    1
    33    15    10   ar
    34     7     1   ar
    35    30    25   ar
    36     5     8    1
    37     5     9    1
@<TRIPOS>MOLECULE
*****
 34 37 0 0 0
SMALL
GASTEIGER

@<TRIPOS>ATOM
      1 C         140.1341  144.8817  158.2527 C.ar    1  UNL1        0.0193
      2 C         139.4764  143.7105  157.5851 C.ar    1  UNL1        0.1002
      3 N         138.7705  143.8937  156.2743 N.ar    1  UNL1       -0.2296
      4 C         138.7224  145.2480  155.6312 C.ar    1  UNL1        0.1253
      5 N         138.0164  145.4311  154.3204 N.pl3   1  UNL1       -0.3426
      6 C         139.3801  146.4191  156.2988 C.ar    1  UNL1        0.0312
      7 C         140.0860  146.2359  157.6096 C.ar    1  UNL1        0.0043
      8 H         137.5848  144.6624  153.8822 H       1  UNL1        0.1437
      9 H         137.9848  146.3199  153.8982 H       1  UNL1        0.1437
     10 C         142.2519  144.3324  162.1852 C.ar    1  UNL1        0.0536
     11 C         141.0401  145.2127  162.1024 C.ar    1  UNL1        0.0045
     12 C         140.3343  145.3958  160.7916 C.ar    1  UNL1        0.0002
     13 C         140.8401  144.6985  159.5635 C.ar    1  UNL1        0.0015
     14 C         142.0517  143.8182  159.6463 C.ar    1  UNL1        0.0002
     15 C         142.7577  143.6351  160.9571 C.ar    1  UNL1        0.0045
     16 C         141.4694  139.5833  167.0928 C.3     1  UNL1        0.0897
     17 N         141.8415  140.7248  166.1936 N.3     1  UNL1       -0.2686
     18 C         142.9194  141.6832  166.6051 C.3     1  UNL1        0.0939
     19 C         143.2915  142.8247  165.7059 C.3     1  UNL1        0.1110
     20 N         142.5856  143.0078  164.3952 N.am    1  UNL1       -0.2732
     21 C         142.9577  144.1493  163.4960 C.2     1  UNL1        0.2491
     22 O         144.0356  145.1077  163.9075 O.2     1  UNL1       -0.2699
     23 C         141.5077  142.0494  163.9836 C.3     1  UNL1        0.1110
     24 C         141.1356  140.9079  164.8828 C.3     1  UNL1        0.0939
     25 C         139.3319  147.7734  155.6557 C.ar    1  UNL1        0.0027
     26 C         138.5415  148.8781  156.2919 C.ar    1  UNL1        0.0000
     27 C         138.4933  150.2324  155.6488 C.ar    1  UNL1        0.0039
     28 C         139.2356  150.4820  154.3695 C.ar    1  UNL1        0.0714
     29 C         140.0261  149.3773  153.7333 C.ar    1  UNL1        0.0039
     30 C         140.0743  148.0230  154.3764 C.ar    1  UNL1        0.0000
     31 C         139.1875  151.8362  153.7264 C.3     1  UNL1        0.4186
     32 F         139.1393  153.1905  153.0833 F       1  UNL1       -0.1659
     33 F         140.2662  151.4207  152.7705 F       1  UNL1       -0.1659
     34 F         138.1087  152.2518  154.6822 F       1  UNL1       -0.1659
@<TRIPOS>BOND
     1    16    17    1
     2    17    18    1
     3    18    19    1
     4    19    20    1
     5    20    21   am
     6    21    22    2
     7    21    10    1
     8    10    11   ar
     9    11    12   ar
    10    12    13   ar
    11    13     1    1
    12     1     2   ar
    13     2     3   ar
    14     3     4   ar
    15     4     5    1
    16     4     6   ar
    17     6    25    1
    18    25    26   ar
    19    26    27   ar
    20    27    28   ar
    21    28    31    1
    22    31    32    1
    23    31    33    1
    24    31    34    1
    25    28    29   ar
    26    29    30   ar
    27     6     7   ar
    28    13    14   ar
    29    14    15   ar
    30    20    23    1
    31    23    24    1
    32    24    17    1
    33    15    10   ar
    34     7     1   ar
    35    30    25   ar
    36     5     8    1
    37     5     9    1
