@<TRIPOS>MOLECULE
*****
 41 44 0 0 0
SMALL
GASTEIGER

@<TRIPOS>ATOM
      1 C         140.1171  143.6224  160.5966 C.3     1  UNL1        0.0412
      2 C         139.9522  143.9119  159.1340 C.3     1  UNL1        0.0249
      3 C         139.1170  142.8187  158.5364 C.3     1  UNL1        0.0935
      4 N         138.7657  141.8535  159.6297 N.am    1  UNL1       -0.2795
      5 C         137.9410  140.6099  159.4765 C.2     1  UNL1        0.2256
      6 O         137.3859  140.2388  158.1334 O.2     1  UNL1       -0.2749
      7 C         139.3838  142.3503  160.9029 C.3     1  UNL1        0.0951
      8 C         140.8812  144.4584  161.5802 C.3     1  UNL1        0.0914
      9 C         140.5588  143.8515  164.0857 C.2     1  UNL1        0.2458
     10 O         139.1965  144.4788  164.0623 O.2     1  UNL1       -0.2701
     11 N         141.4012  143.8413  162.8446 N.am    1  UNL1       -0.3008
     12 H         142.2953  143.4295  162.8599 H       1  UNL1        0.1497
     13 C         142.1185  142.0000  167.8790 C.ar    1  UNL1       -0.0228
     14 C         140.7387  142.5871  167.8432 C.ar    1  UNL1       -0.0041
     15 C         140.2188  143.2043  166.5787 C.ar    1  UNL1        0.0042
     16 C         141.0787  143.2343  165.3501 C.ar    1  UNL1        0.0533
     17 C         142.4585  142.6472  165.3859 C.ar    1  UNL1        0.0042
     18 C         142.9784  142.0300  166.6503 C.ar    1  UNL1       -0.0041
     19 C         142.6048  140.0298  168.4968 C.3     1  UNL1        0.0044
     20 C         142.6384  141.3828  169.1434 C.3     1  UNL1        0.0189
     21 C         142.6721  142.7359  169.7900 C.3     1  UNL1        0.0044
     22 C         143.1583  140.7657  170.4079 C.3     1  UNL1        0.0044
     23 C         137.6715  139.7374  160.6665 C.3     1  UNL1        0.0853
     24 C         138.5076  138.5150  160.9050 C.3     1  UNL1        0.0096
     25 C         139.9987  138.5861  160.7593 C.3     1  UNL1        0.0012
     26 C         140.8840  137.9381  161.7822 C.3     1  UNL1        0.0087
     27 C         141.1941  138.6507  163.0652 C.3     1  UNL1        0.0446
     28 C         142.4951  139.3804  163.2223 C.ar    1  UNL1       -0.0183
     29 C         143.4805  138.9409  164.2643 C.ar    1  UNL1       -0.0017
     30 C         144.7816  139.6707  164.4214 C.ar    1  UNL1        0.0293
     31 C         145.0973  140.8400  163.5365 C.ar    1  UNL1        0.1401
     32 F         146.3984  141.5697  163.6936 F       1  UNL1       -0.2042
     33 C         144.1119  141.2795  162.4945 C.ar    1  UNL1        0.0293
     34 C         142.8109  140.5497  162.3374 C.ar    1  UNL1       -0.0017
     35 C         140.2031  138.6335  164.1910 C.ar    1  UNL1       -0.0183
     36 C         139.4138  137.3904  164.4767 C.ar    1  UNL1       -0.0017
     37 C         138.4228  137.3732  165.6025 C.ar    1  UNL1        0.0293
     38 C         138.2211  138.5992  166.4429 C.ar    1  UNL1        0.1401
     39 F         137.2301  138.5819  167.5687 F       1  UNL1       -0.2042
     40 C         139.0104  139.8424  166.1573 C.ar    1  UNL1        0.0293
     41 C         140.0014  139.8596  165.0315 C.ar    1  UNL1       -0.0017
@<TRIPOS>BOND
     1    19    20    1
     2    20    21    1
     3    20    22    1
     4    20    13    1
     5    13    14   ar
     6    14    15   ar
     7    15    16   ar
     8    16     9    1
     9     9    10    2
    10     9    11   am
    11    11     8    1
    12     8     1    1
    13     1     2    1
    14     2     3    1
    15     3     4    1
    16     4     5   am
    17     5     6    2
    18     5    23    1
    19    23    24    1
    20    24    25    1
    21    25    26    1
    22    26    27    1
    23    27    28    1
    24    28    29   ar
    25    29    30   ar
    26    30    31   ar
    27    31    32    1
    28    31    33   ar
    29    33    34   ar
    30    27    35    1
    31    35    36   ar
    32    36    37   ar
    33    37    38   ar
    34    38    39    1
    35    38    40   ar
    36    40    41   ar
    37     4     7    1
    38    16    17   ar
    39    17    18   ar
    40    18    13   ar
    41     7     1    1
    42    34    28   ar
    43    41    35   ar
    44    11    12    1
@<TRIPOS>MOLECULE
*****
 41 44 0 0 0
SMALL
GASTEIGER

@<TRIPOS>ATOM
      1 C         140.0876  143.6049  161.0447 C.3     1  UNL1        0.0412
      2 C         139.9827  143.9142  159.5807 C.3     1  UNL1        0.0249
      3 C         139.1679  142.8325  158.9357 C.3     1  UNL1        0.0935
      4 N         138.7693  141.8547  160.0011 N.am    1  UNL1       -0.2795
      5 C         137.9466  140.6168  159.7986 C.2     1  UNL1        0.2256
      6 O         137.4444  140.2657  158.4295 O.2     1  UNL1       -0.2749
      7 C         139.3377  142.3321  161.3045 C.3     1  UNL1        0.0951
      8 C         140.8149  144.4246  162.0691 C.3     1  UNL1        0.0914
      9 C         140.4798  143.6759  164.5343 C.2     1  UNL1        0.2458
     10 O         139.0858  144.2293  164.5129 O.2     1  UNL1       -0.2701
     11 N         141.3443  143.7735  163.3124 N.am    1  UNL1       -0.3008
     12 H         142.2593  143.4103  163.3265 H       1  UNL1        0.1497
     13 C         142.0682  141.7227  168.2642 C.ar    1  UNL1       -0.0228
     14 C         140.7067  142.3521  168.2687 C.ar    1  UNL1       -0.0041
     15 C         140.1772  143.0031  167.0254 C.ar    1  UNL1        0.0042
     16 C         141.0093  143.0248  165.7776 C.ar    1  UNL1        0.0533
     17 C         142.3708  142.3955  165.7731 C.ar    1  UNL1        0.0042
     18 C         142.9003  141.7445  167.0164 C.ar    1  UNL1       -0.0041
     19 C         141.5638  139.9921  169.3825 C.3     1  UNL1        0.0044
     20 C         142.5977  141.0717  169.5075 C.3     1  UNL1        0.0189
     21 C         143.6316  142.1513  169.6325 C.3     1  UNL1        0.0044
     22 C         143.1272  140.4206  170.7508 C.3     1  UNL1        0.0044
     23 C         137.6262  139.7301  160.9652 C.3     1  UNL1        0.0853
     24 C         138.4058  138.4674  161.1839 C.3     1  UNL1        0.0096
     25 C         139.8847  138.4463  160.9343 C.3     1  UNL1        0.0012
     26 C         140.8079  137.8388  161.9484 C.3     1  UNL1        0.0087
     27 C         141.1027  138.5674  163.2260 C.3     1  UNL1        0.0446
     28 C         140.0981  138.5651  164.3397 C.ar    1  UNL1       -0.0183
     29 C         139.7999  139.8331  165.0835 C.ar    1  UNL1       -0.0017
     30 C         138.7952  139.8308  166.1973 C.ar    1  UNL1        0.0293
     31 C         138.0887  138.5604  166.5674 C.ar    1  UNL1        0.1401
     32 F         137.0839  138.5581  167.6812 F       1  UNL1       -0.2042
     33 C         138.3868  137.2924  165.8237 C.ar    1  UNL1        0.0293
     34 C         139.3915  137.2947  164.7098 C.ar    1  UNL1       -0.0017
     35 C         142.4023  139.2983  163.3897 C.ar    1  UNL1       -0.0183
     36 C         142.7055  140.4908  162.5317 C.ar    1  UNL1       -0.0017
     37 C         144.0051  141.2217  162.6955 C.ar    1  UNL1        0.0293
     38 C         145.0016  140.7602  163.7172 C.ar    1  UNL1        0.1401
     39 F         146.3011  141.4911  163.8809 F       1  UNL1       -0.2042
     40 C         144.6984  139.5677  164.5752 C.ar    1  UNL1        0.0293
     41 C         143.3989  138.8368  164.4115 C.ar    1  UNL1       -0.0017
@<TRIPOS>BOND
     1    19    20    1
     2    20    21    1
     3    20    22    1
     4    20    13    1
     5    13    14   ar
     6    14    15   ar
     7    15    16   ar
     8    16     9    1
     9     9    10    2
    10     9    11   am
    11    11     8    1
    12     8     1    1
    13     1     2    1
    14     2     3    1
    15     3     4    1
    16     4     5   am
    17     5     6    2
    18     5    23    1
    19    23    24    1
    20    24    25    1
    21    25    26    1
    22    26    27    1
    23    27    28    1
    24    28    29   ar
    25    29    30   ar
    26    30    31   ar
    27    31    32    1
    28    31    33   ar
    29    33    34   ar
    30    27    35    1
    31    35    36   ar
    32    36    37   ar
    33    37    38   ar
    34    38    39    1
    35    38    40   ar
    36    40    41   ar
    37     4     7    1
    38    16    17   ar
    39    17    18   ar
    40    18    13   ar
    41     7     1    1
    42    34    28   ar
    43    41    35   ar
    44    11    12    1
@<TRIPOS>MOLECULE
*****
 41 44 0 0 0
SMALL
GASTEIGER

@<TRIPOS>ATOM
      1 C         139.7573  138.4972  161.3660 C.3     1  UNL1        0.0412
      2 C         139.4687  138.3042  159.9067 C.3     1  UNL1        0.0249
      3 C         140.7301  138.5816  159.1440 C.3     1  UNL1        0.0935
      4 N         141.7984  138.9461  160.1320 N.am    1  UNL1       -0.2795
      5 C         143.2186  139.3005  159.8043 C.2     1  UNL1        0.2256
      6 O         143.6788  139.3106  158.3766 O.2     1  UNL1       -0.2749
      7 C         141.1971  138.8939  161.5052 C.3     1  UNL1        0.0951
      8 C         138.7779  138.3238  162.4889 C.3     1  UNL1        0.0914
      9 C         138.7280  140.0990  164.3853 C.2     1  UNL1        0.2458
     10 O         137.9398  141.0202  163.5021 O.2     1  UNL1       -0.2701
     11 N         139.1471  138.7508  163.8787 N.am    1  UNL1       -0.3008
     12 H         139.6644  138.1462  164.4583 H       1  UNL1        0.1497
     13 C         139.8355  141.3799  168.5545 C.ar    1  UNL1       -0.0228
     14 C         140.0030  142.3324  167.4079 C.ar    1  UNL1       -0.0041
     15 C         139.6339  141.9054  166.0182 C.ar    1  UNL1        0.0042
     16 C         139.0972  140.5260  165.7750 C.ar    1  UNL1        0.0533
     17 C         138.9297  139.5736  166.9216 C.ar    1  UNL1        0.0042
     18 C         139.2988  140.0005  168.3114 C.ar    1  UNL1       -0.0041
     19 C         140.3562  143.2217  169.4694 C.3     1  UNL1        0.0044
     20 C         140.2047  141.8069  169.9443 C.3     1  UNL1        0.0189
     21 C         140.0532  140.3922  170.4192 C.3     1  UNL1        0.0044
     22 C         140.5739  142.2339  171.3340 C.3     1  UNL1        0.0044
     23 C         144.1786  139.6449  160.9041 C.3     1  UNL1        0.0853
     24 C         144.2612  141.0532  161.4140 C.3     1  UNL1        0.0096
     25 C         145.1937  141.3898  162.5397 C.3     1  UNL1        0.0012
     26 C         144.8110  142.4373  163.5428 C.3     1  UNL1        0.0087
     27 C         143.4649  142.3877  164.2027 C.3     1  UNL1        0.0446
     28 C         143.2406  141.4891  165.3825 C.ar    1  UNL1       -0.0183
     29 C         142.8491  140.0567  165.1706 C.ar    1  UNL1       -0.0017
     30 C         142.6248  139.1580  166.3505 C.ar    1  UNL1        0.0293
     31 C         142.7920  139.6917  167.7423 C.ar    1  UNL1        0.1401
     32 F         142.5678  138.7930  168.9222 F       1  UNL1       -0.2042
     33 C         143.1836  141.1241  167.9542 C.ar    1  UNL1        0.0293
     34 C         143.4079  142.0228  166.7743 C.ar    1  UNL1       -0.0017
     35 C         142.3431  143.2368  163.6827 C.ar    1  UNL1       -0.0183
     36 C         141.2305  142.6100  162.8958 C.ar    1  UNL1       -0.0017
     37 C         140.1086  143.4592  162.3758 C.ar    1  UNL1        0.0293
     38 C         140.0993  144.9352  162.6427 C.ar    1  UNL1        0.1401
     39 F         138.9775  145.7843  162.1227 F       1  UNL1       -0.2042
     40 C         141.2119  145.5621  163.4296 C.ar    1  UNL1        0.0293
     41 C         142.3338  144.7129  163.9496 C.ar    1  UNL1       -0.0017
@<TRIPOS>BOND
     1    19    20    1
     2    20    21    1
     3    20    22    1
     4    20    13    1
     5    13    14   ar
     6    14    15   ar
     7    15    16   ar
     8    16     9    1
     9     9    10    2
    10     9    11   am
    11    11     8    1
    12     8     1    1
    13     1     2    1
    14     2     3    1
    15     3     4    1
    16     4     5   am
    17     5     6    2
    18     5    23    1
    19    23    24    1
    20    24    25    1
    21    25    26    1
    22    26    27    1
    23    27    28    1
    24    28    29   ar
    25    29    30   ar
    26    30    31   ar
    27    31    32    1
    28    31    33   ar
    29    33    34   ar
    30    27    35    1
    31    35    36   ar
    32    36    37   ar
    33    37    38   ar
    34    38    39    1
    35    38    40   ar
    36    40    41   ar
    37     4     7    1
    38    16    17   ar
    39    17    18   ar
    40    18    13   ar
    41     7     1    1
    42    34    28   ar
    43    41    35   ar
    44    11    12    1
@<TRIPOS>MOLECULE
*****
 41 44 0 0 0
SMALL
GASTEIGER

@<TRIPOS>ATOM
      1 C         142.9207  138.3049  160.3741 C.3     1  UNL1        0.0412
      2 C         142.8566  137.4138  159.1691 C.3     1  UNL1        0.0249
      3 C         142.0397  138.1096  158.1210 C.3     1  UNL1        0.0935
      4 N         141.5989  139.4307  158.6782 N.am    1  UNL1       -0.2795
      5 C         140.7608  140.4518  157.9676 C.2     1  UNL1        0.2256
      6 O         140.2862  140.1907  156.5688 O.2     1  UNL1       -0.2749
      7 C         142.1434  139.5514  160.0706 C.3     1  UNL1        0.0951
      8 C         143.6364  138.0025  161.6572 C.3     1  UNL1        0.0914
      9 C         143.7111  139.9769  163.3443 C.2     1  UNL1        0.2458
     10 O         144.7011  140.6870  162.4693 O.2     1  UNL1       -0.2701
     11 N         143.1788  138.6346  162.9382 N.am    1  UNL1       -0.3008
     12 H         142.5290  138.1685  163.5125 H       1  UNL1        0.1497
     13 C         142.3382  141.8732  167.1873 C.ar    1  UNL1       -0.0228
     14 C         141.6525  140.6430  166.6712 C.ar    1  UNL1       -0.0041
     15 C         142.1102  140.0109  165.3902 C.ar    1  UNL1        0.0042
     16 C         143.2535  140.6090  164.6253 C.ar    1  UNL1        0.0533
     17 C         143.9391  141.8392  165.1414 C.ar    1  UNL1        0.0042
     18 C         143.4815  142.4713  166.4224 C.ar    1  UNL1       -0.0041
     19 C         140.5209  142.7253  167.8740 C.3     1  UNL1        0.0044
     20 C         141.8805  142.5053  168.4683 C.3     1  UNL1        0.0189
     21 C         143.2401  142.2853  169.0626 C.3     1  UNL1        0.0044
     22 C         141.4229  143.1374  169.7493 C.3     1  UNL1        0.0044
     23 C         140.3973  141.7341  158.6558 C.3     1  UNL1        0.0853
     24 C         138.9636  142.0286  158.9845 C.3     1  UNL1        0.0096
     25 C         138.3144  141.3700  160.1655 C.3     1  UNL1        0.0012
     26 C         138.2323  142.0940  161.4766 C.3     1  UNL1        0.0087
     27 C         139.2203  141.7910  162.5639 C.3     1  UNL1        0.0446
     28 C         140.3661  142.7251  162.8178 C.ar    1  UNL1       -0.0183
     29 C         141.5531  142.7227  161.9007 C.ar    1  UNL1       -0.0017
     30 C         142.6989  143.6569  162.1546 C.ar    1  UNL1        0.0293
     31 C         142.6578  144.5934  163.3256 C.ar    1  UNL1        0.1401
     32 F         143.8037  145.5275  163.5795 F       1  UNL1       -0.2042
     33 C         141.4708  144.5957  164.2427 C.ar    1  UNL1        0.0293
     34 C         140.3250  143.6616  163.9888 C.ar    1  UNL1       -0.0017
     35 C         139.0624  140.5539  163.3972 C.ar    1  UNL1       -0.0183
     36 C         138.4031  140.6345  164.7422 C.ar    1  UNL1       -0.0017
     37 C         138.2452  139.3973  165.5755 C.ar    1  UNL1        0.0293
     38 C         138.7466  138.0795  165.0640 C.ar    1  UNL1        0.1401
     39 F         138.5887  136.8423  165.8973 F       1  UNL1       -0.2042
     40 C         139.4060  137.9987  163.7190 C.ar    1  UNL1        0.0293
     41 C         139.5639  139.2359  162.8857 C.ar    1  UNL1       -0.0017
@<TRIPOS>BOND
     1    19    20    1
     2    20    21    1
     3    20    22    1
     4    20    13    1
     5    13    14   ar
     6    14    15   ar
     7    15    16   ar
     8    16     9    1
     9     9    10    2
    10     9    11   am
    11    11     8    1
    12     8     1    1
    13     1     2    1
    14     2     3    1
    15     3     4    1
    16     4     5   am
    17     5     6    2
    18     5    23    1
    19    23    24    1
    20    24    25    1
    21    25    26    1
    22    26    27    1
    23    27    28    1
    24    28    29   ar
    25    29    30   ar
    26    30    31   ar
    27    31    32    1
    28    31    33   ar
    29    33    34   ar
    30    27    35    1
    31    35    36   ar
    32    36    37   ar
    33    37    38   ar
    34    38    39    1
    35    38    40   ar
    36    40    41   ar
    37     4     7    1
    38    16    17   ar
    39    17    18   ar
    40    18    13   ar
    41     7     1    1
    42    34    28   ar
    43    41    35   ar
    44    11    12    1
@<TRIPOS>MOLECULE
*****
 41 44 0 0 0
SMALL
GASTEIGER

@<TRIPOS>ATOM
      1 C         143.3857  142.5704  160.4666 C.3     1  UNL1        0.0412
      2 C         143.6728  142.9232  159.0372 C.3     1  UNL1        0.0249
      3 C         143.1540  141.8127  158.1724 C.3     1  UNL1        0.0935
      4 N         142.5463  140.7736  159.0675 N.am    1  UNL1       -0.2795
      5 C         141.9076  139.4913  158.6227 C.2     1  UNL1        0.2256
      6 O         141.8368  139.1557  157.1624 O.2     1  UNL1       -0.2749
      7 C         142.6895  141.2419  160.4853 C.3     1  UNL1        0.0951
      8 C         143.7337  143.4004  161.6666 C.3     1  UNL1        0.0914
      9 C         143.5457  142.6991  164.1611 C.2     1  UNL1        0.2458
     10 O         144.9750  142.2445  164.1410 O.2     1  UNL1       -0.2701
     11 N         142.9251  143.2771  162.9239 N.am    1  UNL1       -0.3008
     12 H         141.9870  143.5755  162.9371 H       1  UNL1        0.1497
     13 C         141.1198  142.3290  167.9331 C.ar    1  UNL1       -0.0228
     14 C         142.6018  142.1007  167.9691 C.ar    1  UNL1       -0.0041
     15 C         143.4105  142.2241  166.7118 C.ar    1  UNL1        0.0042
     16 C         142.7370  142.5757  165.4184 C.ar    1  UNL1        0.0533
     17 C         141.2550  142.8040  165.3824 C.ar    1  UNL1        0.0042
     18 C         140.4464  142.6807  166.6398 C.ar    1  UNL1       -0.0041
     19 C         140.1044  140.7458  168.9143 C.3     1  UNL1        0.0044
     20 C         140.3111  142.2056  169.1904 C.3     1  UNL1        0.0189
     21 C         140.5178  143.6654  169.4666 C.3     1  UNL1        0.0044
     22 C         139.5025  142.0823  170.4478 C.3     1  UNL1        0.0044
     23 C         141.3396  138.5447  159.6382 C.3     1  UNL1        0.0853
     24 C         139.9698  138.7824  160.2015 C.3     1  UNL1        0.0096
     25 C         139.4191  137.8604  161.2487 C.3     1  UNL1        0.0012
     26 C         138.9119  138.4167  162.5460 C.3     1  UNL1        0.0087
     27 C         139.6430  139.5417  163.2167 C.3     1  UNL1        0.0446
     28 C         139.1034  140.9390  163.1386 C.ar    1  UNL1       -0.0183
     29 C         138.0483  141.3905  164.1045 C.ar    1  UNL1       -0.0017
     30 C         137.5085  142.7879  164.0264 C.ar    1  UNL1        0.0293
     31 C         138.0239  143.7338  162.9826 C.ar    1  UNL1        0.1401
     32 F         137.4842  145.1311  162.9045 F       1  UNL1       -0.2042
     33 C         139.0790  143.2822  162.0167 C.ar    1  UNL1        0.0293
     34 C         139.6188  141.8849  162.0948 C.ar    1  UNL1       -0.0017
     35 C         140.9139  139.2693  163.9654 C.ar    1  UNL1       -0.0183
     36 C         142.2154  139.1771  163.2255 C.ar    1  UNL1       -0.0017
     37 C         143.4863  138.9046  163.9742 C.ar    1  UNL1        0.0293
     38 C         143.4557  138.7244  165.4630 C.ar    1  UNL1        0.1401
     39 F         144.7266  138.4520  166.2118 F       1  UNL1       -0.2042
     40 C         142.1542  138.8166  166.2031 C.ar    1  UNL1        0.0293
     41 C         140.8834  139.0891  165.4543 C.ar    1  UNL1       -0.0017
@<TRIPOS>BOND
     1    19    20    1
     2    20    21    1
     3    20    22    1
     4    20    13    1
     5    13    14   ar
     6    14    15   ar
     7    15    16   ar
     8    16     9    1
     9     9    10    2
    10     9    11   am
    11    11     8    1
    12     8     1    1
    13     1     2    1
    14     2     3    1
    15     3     4    1
    16     4     5   am
    17     5     6    2
    18     5    23    1
    19    23    24    1
    20    24    25    1
    21    25    26    1
    22    26    27    1
    23    27    28    1
    24    28    29   ar
    25    29    30   ar
    26    30    31   ar
    27    31    32    1
    28    31    33   ar
    29    33    34   ar
    30    27    35    1
    31    35    36   ar
    32    36    37   ar
    33    37    38   ar
    34    38    39    1
    35    38    40   ar
    36    40    41   ar
    37     4     7    1
    38    16    17   ar
    39    17    18   ar
    40    18    13   ar
    41     7     1    1
    42    34    28   ar
    43    41    35   ar
    44    11    12    1
@<TRIPOS>MOLECULE
*****
 41 44 0 0 0
SMALL
GASTEIGER

@<TRIPOS>ATOM
      1 C         139.1970  139.6202  160.5015 C.3     1  UNL1        0.0412
      2 C         139.0359  139.5235  159.0133 C.3     1  UNL1        0.0249
      3 C         140.3911  139.2886  158.4146 C.3     1  UNL1        0.0935
      4 N         141.3897  139.2400  159.5329 N.am    1  UNL1       -0.2795
      5 C         142.8669  139.0244  159.3871 C.2     1  UNL1        0.2256
      6 O         143.4661  138.8328  158.0253 O.2     1  UNL1       -0.2749
      7 C         140.6517  139.4450  160.8226 C.3     1  UNL1        0.0951
      8 C         138.0965  139.8515  161.4942 C.3     1  UNL1        0.0914
      9 C         138.7214  139.5140  163.9934 C.2     1  UNL1        0.2458
     10 O         138.7151  138.0273  163.7941 O.2     1  UNL1       -0.2701
     11 N         138.4121  140.4261  162.8434 N.am    1  UNL1       -0.3008
     12 H         138.4162  141.4019  162.9742 H       1  UNL1        0.1497
     13 C         139.6681  141.2377  168.0409 C.ar    1  UNL1       -0.0228
     14 C         139.1816  139.8238  167.9230 C.ar    1  UNL1       -0.0041
     15 C         138.8660  139.2492  166.5738 C.ar    1  UNL1        0.0042
     16 C         139.0370  140.0886  165.3425 C.ar    1  UNL1        0.0533
     17 C         139.5235  141.5025  165.4604 C.ar    1  UNL1        0.0042
     18 C         139.8391  142.0771  166.8096 C.ar    1  UNL1       -0.0041
     19 C         139.6396  140.4998  170.0295 C.3     1  UNL1        0.0044
     20 C         139.9837  141.8123  169.3900 C.3     1  UNL1        0.0189
     21 C         140.3279  143.1248  168.7506 C.3     1  UNL1        0.0044
     22 C         140.2993  142.3869  170.7392 C.3     1  UNL1        0.0044
     23 C         143.7450  139.0003  160.6029 C.3     1  UNL1        0.0853
     24 C         143.6066  140.0662  161.6493 C.3     1  UNL1        0.0096
     25 C         144.8174  140.5527  162.3890 C.3     1  UNL1        0.0012
     26 C         144.7209  141.7600  163.2738 C.3     1  UNL1        0.0087
     27 C         143.4784  142.0028  164.0784 C.3     1  UNL1        0.0446
     28 C         142.4734  143.0170  163.6188 C.ar    1  UNL1       -0.0183
     29 C         141.3384  142.5993  162.7314 C.ar    1  UNL1       -0.0017
     30 C         140.3334  143.6136  162.2718 C.ar    1  UNL1        0.0293
     31 C         140.4634  145.0454  162.6994 C.ar    1  UNL1        0.1401
     32 F         139.4583  146.0596  162.2397 F       1  UNL1       -0.2042
     33 C         141.5983  145.4630  163.5867 C.ar    1  UNL1        0.0293
     34 C         142.6034  144.4488  164.0464 C.ar    1  UNL1       -0.0017
     35 C         143.2411  141.2314  165.3428 C.ar    1  UNL1       -0.0183
     36 C         143.3842  141.9093  166.6732 C.ar    1  UNL1       -0.0017
     37 C         143.1469  141.1378  167.9375 C.ar    1  UNL1        0.0293
     38 C         142.7663  139.6885  167.8715 C.ar    1  UNL1        0.1401
     39 F         142.5289  138.9170  169.1358 F       1  UNL1       -0.2042
     40 C         142.6231  139.0105  166.5411 C.ar    1  UNL1        0.0293
     41 C         142.8605  139.7819  165.2767 C.ar    1  UNL1       -0.0017
@<TRIPOS>BOND
     1    19    20    1
     2    20    21    1
     3    20    22    1
     4    20    13    1
     5    13    14   ar
     6    14    15   ar
     7    15    16   ar
     8    16     9    1
     9     9    10    2
    10     9    11   am
    11    11     8    1
    12     8     1    1
    13     1     2    1
    14     2     3    1
    15     3     4    1
    16     4     5   am
    17     5     6    2
    18     5    23    1
    19    23    24    1
    20    24    25    1
    21    25    26    1
    22    26    27    1
    23    27    28    1
    24    28    29   ar
    25    29    30   ar
    26    30    31   ar
    27    31    32    1
    28    31    33   ar
    29    33    34   ar
    30    27    35    1
    31    35    36   ar
    32    36    37   ar
    33    37    38   ar
    34    38    39    1
    35    38    40   ar
    36    40    41   ar
    37     4     7    1
    38    16    17   ar
    39    17    18   ar
    40    18    13   ar
    41     7     1    1
    42    34    28   ar
    43    41    35   ar
    44    11    12    1
@<TRIPOS>MOLECULE
*****
 41 44 0 0 0
SMALL
GASTEIGER

@<TRIPOS>ATOM
      1 C         144.0956  141.8333  160.6501 C.3     1  UNL1        0.0412
      2 C         144.3176  142.4418  159.2971 C.3     1  UNL1        0.0249
      3 C         143.4786  141.6894  158.3071 C.3     1  UNL1        0.0935
      4 N         142.7380  140.6160  159.0483 N.am    1  UNL1       -0.2795
      5 C         141.7837  139.6272  158.4471 C.2     1  UNL1        0.2256
      6 O         141.4988  139.6596  156.9747 O.2     1  UNL1       -0.2749
      7 C         143.1193  140.7049  160.4963 C.3     1  UNL1        0.0951
      8 C         144.7372  142.2757  161.9318 C.3     1  UNL1        0.0914
      9 C         143.1765  143.1073  163.8352 C.2     1  UNL1        0.2458
     10 O         143.0053  144.4162  163.1229 O.2     1  UNL1       -0.2701
     11 N         144.0424  142.0370  163.2397 N.am    1  UNL1       -0.3008
     12 H         144.1548  141.1779  163.7072 H       1  UNL1        0.1497
     13 C         141.0924  142.3913  167.7587 C.ar    1  UNL1       -0.0228
     14 C         140.3308  142.9578  166.5973 C.ar    1  UNL1       -0.0041
     15 C         141.0255  143.1965  165.2895 C.ar    1  UNL1        0.0042
     16 C         142.4818  142.8686  165.1430 C.ar    1  UNL1        0.0533
     17 C         143.2435  142.3021  166.3044 C.ar    1  UNL1        0.0042
     18 C         142.5488  142.0634  167.6122 C.ar    1  UNL1       -0.0041
     19 C         140.3175  140.6872  168.7565 C.3     1  UNL1        0.0044
     20 C         140.3977  142.1526  169.0665 C.3     1  UNL1        0.0189
     21 C         140.4779  143.6180  169.3765 C.3     1  UNL1        0.0044
     22 C         139.7030  141.9139  170.3744 C.3     1  UNL1        0.0044
     23 C         141.1142  138.6059  159.3181 C.3     1  UNL1        0.0853
     24 C         139.7336  138.8600  159.8465 C.3     1  UNL1        0.0096
     25 C         139.2381  138.1049  161.0441 C.3     1  UNL1        0.0012
     26 C         138.6941  138.8489  162.2275 C.3     1  UNL1        0.0087
     27 C         139.5448  139.8648  162.9306 C.3     1  UNL1        0.0446
     28 C         140.6952  139.4187  163.7834 C.ar    1  UNL1       -0.0183
     29 C         141.9893  139.0112  163.1437 C.ar    1  UNL1       -0.0017
     30 C         143.1398  138.5651  163.9965 C.ar    1  UNL1        0.0293
     31 C         142.9963  138.5264  165.4891 C.ar    1  UNL1        0.1401
     32 F         144.1468  138.0803  166.3420 F       1  UNL1       -0.2042
     33 C         141.7022  138.9339  166.1289 C.ar    1  UNL1        0.0293
     34 C         140.5517  139.3801  165.2760 C.ar    1  UNL1       -0.0017
     35 C         139.2449  141.3268  162.7808 C.ar    1  UNL1       -0.0183
     36 C         138.0595  141.9248  163.4789 C.ar    1  UNL1       -0.0017
     37 C         137.7596  143.3868  163.3291 C.ar    1  UNL1        0.0293
     38 C         138.6451  144.2510  162.4812 C.ar    1  UNL1        0.1401
     39 F         138.3452  145.7131  162.3314 F       1  UNL1       -0.2042
     40 C         139.8306  143.6531  161.7831 C.ar    1  UNL1        0.0293
     41 C         140.1305  142.1911  161.9329 C.ar    1  UNL1       -0.0017
@<TRIPOS>BOND
     1    19    20    1
     2    20    21    1
     3    20    22    1
     4    20    13    1
     5    13    14   ar
     6    14    15   ar
     7    15    16   ar
     8    16     9    1
     9     9    10    2
    10     9    11   am
    11    11     8    1
    12     8     1    1
    13     1     2    1
    14     2     3    1
    15     3     4    1
    16     4     5   am
    17     5     6    2
    18     5    23    1
    19    23    24    1
    20    24    25    1
    21    25    26    1
    22    26    27    1
    23    27    28    1
    24    28    29   ar
    25    29    30   ar
    26    30    31   ar
    27    31    32    1
    28    31    33   ar
    29    33    34   ar
    30    27    35    1
    31    35    36   ar
    32    36    37   ar
    33    37    38   ar
    34    38    39    1
    35    38    40   ar
    36    40    41   ar
    37     4     7    1
    38    16    17   ar
    39    17    18   ar
    40    18    13   ar
    41     7     1    1
    42    34    28   ar
    43    41    35   ar
    44    11    12    1
@<TRIPOS>MOLECULE
*****
 41 44 0 0 0
SMALL
GASTEIGER

@<TRIPOS>ATOM
      1 C         142.9026  138.3125  160.4365 C.3     1  UNL1        0.0412
      2 C         142.8026  137.4323  159.2260 C.3     1  UNL1        0.0249
      3 C         142.0782  138.1952  158.1568 C.3     1  UNL1        0.0935
      4 N         141.7306  139.5469  158.7065 N.am    1  UNL1       -0.2795
      5 C         141.0015  140.6351  157.9755 C.2     1  UNL1        0.2256
      6 O         140.5502  140.4169  156.5617 O.2     1  UNL1       -0.2749
      7 C         142.2401  139.6194  160.1154 C.3     1  UNL1        0.0951
      8 C         143.5513  137.9495  161.7394 C.3     1  UNL1        0.0914
      9 C         143.6906  139.9046  163.4448 C.2     1  UNL1        0.2458
     10 O         144.7459  140.5615  162.6054 O.2     1  UNL1       -0.2701
     11 N         143.0933  138.5986  163.0118 N.am    1  UNL1       -0.3008
     12 H         142.4006  138.1674  163.5627 H       1  UNL1        0.1497
     13 C         142.3164  141.8518  167.2618 C.ar    1  UNL1       -0.0228
     14 C         143.4481  142.4500  166.4799 C.ar    1  UNL1       -0.0041
     15 C         143.9061  141.8009  165.2075 C.ar    1  UNL1        0.0042
     16 C         143.2325  140.5537  164.7171 C.ar    1  UNL1        0.0533
     17 C         142.1009  139.9555  165.4991 C.ar    1  UNL1        0.0042
     18 C         141.6428  140.6045  166.7714 C.ar    1  UNL1       -0.0041
     19 C         140.5082  142.7401  167.9261 C.3     1  UNL1        0.0044
     20 C         141.8584  142.5009  168.5342 C.3     1  UNL1        0.0189
     21 C         143.2085  142.2616  169.1423 C.3     1  UNL1        0.0044
     22 C         141.4003  143.1499  169.8066 C.3     1  UNL1        0.0044
     23 C         140.7235  141.9414  158.6583 C.3     1  UNL1        0.0853
     24 C         139.3081  142.3901  158.8714 C.3     1  UNL1        0.0096
     25 C         138.8636  142.8510  160.2278 C.3     1  UNL1        0.0012
     26 C         138.4743  141.8461  161.2710 C.3     1  UNL1        0.0087
     27 C         139.3472  141.6357  162.4726 C.3     1  UNL1        0.0446
     28 C         139.1305  140.4443  163.3578 C.ar    1  UNL1       -0.0183
     29 C         138.4431  140.6081  164.6809 C.ar    1  UNL1       -0.0017
     30 C         138.2264  139.4167  165.5661 C.ar    1  UNL1        0.0293
     31 C         138.6971  138.0614  165.1281 C.ar    1  UNL1        0.1401
     32 F         138.4804  136.8700  166.0133 F       1  UNL1       -0.2042
     33 C         139.3845  137.8976  163.8050 C.ar    1  UNL1        0.0293
     34 C         139.6012  139.0891  162.9199 C.ar    1  UNL1       -0.0017
     35 C         140.4368  142.6168  162.7890 C.ar    1  UNL1       -0.0183
     36 C         141.7184  142.5915  162.0100 C.ar    1  UNL1       -0.0017
     37 C         142.8080  143.5726  162.3264 C.ar    1  UNL1        0.0293
     38 C         142.6161  144.5791  163.4218 C.ar    1  UNL1        0.1401
     39 F         143.7057  145.5603  163.7382 F       1  UNL1       -0.2042
     40 C         141.3345  144.6046  164.2009 C.ar    1  UNL1        0.0293
     41 C         140.2449  143.6234  163.8845 C.ar    1  UNL1       -0.0017
@<TRIPOS>BOND
     1    19    20    1
     2    20    21    1
     3    20    22    1
     4    20    13    1
     5    13    14   ar
     6    14    15   ar
     7    15    16   ar
     8    16     9    1
     9     9    10    2
    10     9    11   am
    11    11     8    1
    12     8     1    1
    13     1     2    1
    14     2     3    1
    15     3     4    1
    16     4     5   am
    17     5     6    2
    18     5    23    1
    19    23    24    1
    20    24    25    1
    21    25    26    1
    22    26    27    1
    23    27    28    1
    24    28    29   ar
    25    29    30   ar
    26    30    31   ar
    27    31    32    1
    28    31    33   ar
    29    33    34   ar
    30    27    35    1
    31    35    36   ar
    32    36    37   ar
    33    37    38   ar
    34    38    39    1
    35    38    40   ar
    36    40    41   ar
    37     4     7    1
    38    16    17   ar
    39    17    18   ar
    40    18    13   ar
    41     7     1    1
    42    34    28   ar
    43    41    35   ar
    44    11    12    1
@<TRIPOS>MOLECULE
*****
 41 44 0 0 0
SMALL
GASTEIGER

@<TRIPOS>ATOM
      1 C         138.2730  140.1193  161.3271 C.3     1  UNL1        0.0412
      2 C         137.8356  140.2336  159.8969 C.3     1  UNL1        0.0249
      3 C         138.8963  139.6131  159.0367 C.3     1  UNL1        0.0935
      4 N         139.9893  139.1153  159.9354 N.am    1  UNL1       -0.2795
      5 C         141.2467  138.4257  159.4957 C.2     1  UNL1        0.2256
      6 O         141.4966  138.1798  158.0372 O.2     1  UNL1       -0.2749
      7 C         139.6041  139.4281  161.3509 C.3     1  UNL1        0.0951
      8 C         137.5128  140.6100  162.5236 C.3     1  UNL1        0.0914
      9 C         138.7047  140.3453  164.8169 C.2     1  UNL1        0.2458
     10 O         138.4265  138.8715  164.7913 O.2     1  UNL1       -0.2701
     11 N         138.2479  141.2145  163.6830 N.am    1  UNL1       -0.3008
     12 H         138.4305  142.1817  163.6997 H       1  UNL1        0.1497
     13 C         140.9100  142.1587  168.2951 C.ar    1  UNL1       -0.0228
     14 C         140.8462  142.8871  166.9855 C.ar    1  UNL1       -0.0041
     15 C         140.1111  142.2827  165.8261 C.ar    1  UNL1        0.0042
     16 C         139.4398  140.9497  165.9763 C.ar    1  UNL1        0.0533
     17 C         139.5036  140.2213  167.2860 C.ar    1  UNL1        0.0042
     18 C         140.2387  140.8258  168.4454 C.ar    1  UNL1       -0.0041
     19 C         142.8164  141.8678  169.1787 C.3     1  UNL1        0.0044
     20 C         141.6450  142.7632  169.4546 C.3     1  UNL1        0.0189
     21 C         140.4736  143.6586  169.7304 C.3     1  UNL1        0.0044
     22 C         142.3801  143.3677  170.6140 C.3     1  UNL1        0.0044
     23 C         142.2543  137.9819  160.5144 C.3     1  UNL1        0.0853
     24 C         143.6691  138.4738  160.4338 C.3     1  UNL1        0.0096
     25 C         144.0834  139.6949  161.2001 C.3     1  UNL1        0.0012
     26 C         143.2595  140.9457  161.1203 C.3     1  UNL1        0.0087
     27 C         142.6069  141.4941  162.3546 C.3     1  UNL1        0.0446
     28 C         142.7135  140.7505  163.6528 C.ar    1  UNL1       -0.0183
     29 C         142.0243  139.4286  163.8187 C.ar    1  UNL1       -0.0017
     30 C         142.1308  138.6849  165.1171 C.ar    1  UNL1        0.0293
     31 C         142.9266  139.2632  166.2495 C.ar    1  UNL1        0.1401
     32 F         143.0331  138.5195  167.5478 F       1  UNL1       -0.2042
     33 C         143.6157  140.5851  166.0836 C.ar    1  UNL1        0.0293
     34 C         143.5092  141.3288  164.7853 C.ar    1  UNL1       -0.0017
     35 C         141.8477  142.7862  162.2904 C.ar    1  UNL1       -0.0183
     36 C         142.2493  143.9364  163.1655 C.ar    1  UNL1       -0.0017
     37 C         141.4901  145.2285  163.1013 C.ar    1  UNL1        0.0293
     38 C         140.3292  145.3704  162.1621 C.ar    1  UNL1        0.1401
     39 F         139.5700  146.6625  162.0980 F       1  UNL1       -0.2042
     40 C         139.9275  144.2202  161.2870 C.ar    1  UNL1        0.0293
     41 C         140.6867  142.9281  161.3512 C.ar    1  UNL1       -0.0017
@<TRIPOS>BOND
     1    19    20    1
     2    20    21    1
     3    20    22    1
     4    20    13    1
     5    13    14   ar
     6    14    15   ar
     7    15    16   ar
     8    16     9    1
     9     9    10    2
    10     9    11   am
    11    11     8    1
    12     8     1    1
    13     1     2    1
    14     2     3    1
    15     3     4    1
    16     4     5   am
    17     5     6    2
    18     5    23    1
    19    23    24    1
    20    24    25    1
    21    25    26    1
    22    26    27    1
    23    27    28    1
    24    28    29   ar
    25    29    30   ar
    26    30    31   ar
    27    31    32    1
    28    31    33   ar
    29    33    34   ar
    30    27    35    1
    31    35    36   ar
    32    36    37   ar
    33    37    38   ar
    34    38    39    1
    35    38    40   ar
    36    40    41   ar
    37     4     7    1
    38    16    17   ar
    39    17    18   ar
    40    18    13   ar
    41     7     1    1
    42    34    28   ar
    43    41    35   ar
    44    11    12    1
