@<TRIPOS>MOLECULE
*****
 31 34 0 0 0
SMALL
GASTEIGER

@<TRIPOS>ATOM
      1 C         140.5067  146.1278  155.2167 C.3     1  UNL1        0.0521
      2 C         140.9783  145.5879  156.5343 C.ar    1  UNL1        0.0610
      3 C         140.2787  145.9835  157.8007 C.ar    1  UNL1        0.0354
      4 C         140.7504  145.4435  159.1183 C.ar    1  UNL1        0.1031
      5 N         140.0507  145.8392  160.3848 N.ar    1  UNL1       -0.2264
      6 C         140.5224  145.2992  161.7023 C.ar    1  UNL1        0.1603
      7 C         141.6937  144.3635  161.7534 C.ar    1  UNL1        0.1634
      8 N         142.3933  143.9679  160.4869 N.ar    1  UNL1       -0.2247
      9 C         141.9216  144.5079  159.1694 C.ar    1  UNL1        0.1195
     10 C         142.6212  144.1122  157.9029 C.ar    1  UNL1        0.1190
     11 N         142.1496  144.6522  156.5854 N.ar    1  UNL1       -0.2465
     12 N         142.1654  143.8235  163.0709 N.pl3   1  UNL1       -0.2908
     13 C         143.3024  144.4871  163.7897 C.3     1  UNL1        0.0960
     14 C         143.7741  143.9471  165.1072 C.3     1  UNL1        0.0650
     15 C         143.1087  142.7436  165.7060 C.3     1  UNL1        0.1694
     16 C         141.9716  142.0799  164.9873 C.3     1  UNL1        0.0650
     17 C         141.4999  142.6199  163.6697 C.3     1  UNL1        0.0960
     18 O         143.5804  142.2036  167.0236 O.3     1  UNL1       -0.4768
     19 C         142.5938  141.6220  167.9923 C.ar    1  UNL1        0.1657
     20 C         141.7174  142.5283  168.8050 C.ar    1  UNL1        0.0415
     21 C         140.7307  141.9467  169.7738 C.ar    1  UNL1        0.0329
     22 C         140.6206  140.4589  169.9297 C.ar    1  UNL1        0.1426
     23 F         139.6340  139.8774  170.8984 F       1  UNL1       -0.2041
     24 C         141.4970  139.5527  169.1169 C.ar    1  UNL1        0.0624
     25 C         142.4836  140.1342  168.1482 C.ar    1  UNL1        0.1760
     26 F         143.3600  139.2280  167.3355 F       1  UNL1       -0.2009
     27 N         139.8228  145.6949  162.9688 N.pl3   1  UNL1       -0.3175
     28 H         140.0166  146.5648  163.3871 H       1  UNL1        0.1482
     29 C         138.8279  144.7651  163.5980 C.3     1  UNL1        0.0706
     30 C         138.6950  144.7076  165.0909 C.3     1  UNL1        0.0212
     31 C         137.9659  143.8929  162.7341 C.3     1  UNL1        0.0212
@<TRIPOS>BOND
     1     1     2    1
     2     2     3   ar
     3     3     4   ar
     4     4     5   ar
     5     5     6   ar
     6     6    27    1
     7    27    29    1
     8    29    30    1
     9    29    31    1
    10     6     7   ar
    11     7    12    1
    12    12    13    1
    13    13    14    1
    14    14    15    1
    15    15    18    1
    16    18    19    1
    17    19    20   ar
    18    20    21   ar
    19    21    22   ar
    20    22    23    1
    21    22    24   ar
    22    24    25   ar
    23    25    26    1
    24    15    16    1
    25    16    17    1
    26     7     8   ar
    27     8     9   ar
    28     9    10   ar
    29    10    11   ar
    30    11     2   ar
    31     9     4   ar
    32    17    12    1
    33    25    19   ar
    34    27    28    1
@<TRIPOS>MOLECULE
*****
 31 34 0 0 0
SMALL
GASTEIGER

@<TRIPOS>ATOM
      1 C         137.9676  140.9615  155.4545 C.3     1  UNL1        0.0521
      2 C         138.2805  140.7252  156.9024 C.ar    1  UNL1        0.0610
      3 C         137.8959  141.7485  157.9295 C.ar    1  UNL1        0.0354
      4 C         138.2088  141.5122  159.3774 C.ar    1  UNL1        0.1031
      5 N         137.8242  142.5356  160.4045 N.ar    1  UNL1       -0.2264
      6 C         138.1371  142.2993  161.8523 C.ar    1  UNL1        0.1603
      7 C         138.8345  141.0396  162.2731 C.ar    1  UNL1        0.1634
      8 N         139.2191  140.0164  161.2460 N.ar    1  UNL1       -0.2247
      9 C         138.9062  140.2527  159.7981 C.ar    1  UNL1        0.1195
     10 C         139.2908  139.2294  158.7710 C.ar    1  UNL1        0.1190
     11 N         138.9780  139.4657  157.3231 N.ar    1  UNL1       -0.2465
     12 N         139.1474  140.8034  163.7209 N.pl3   1  UNL1       -0.2908
     13 C         140.4367  141.3043  164.3011 C.3     1  UNL1        0.0960
     14 C         140.7496  141.0680  165.7489 C.3     1  UNL1        0.0650
     15 C         139.7731  140.3308  166.6166 C.3     1  UNL1        0.1694
     16 C         138.4837  139.8298  166.0365 C.3     1  UNL1        0.0650
     17 C         138.1708  140.0661  164.5886 C.3     1  UNL1        0.0960
     18 O         140.0860  140.0945  168.0645 O.3     1  UNL1       -0.4768
     19 C         140.9571  141.0608  168.8110 C.ar    1  UNL1        0.1657
     20 C         140.4200  142.4048  169.2050 C.ar    1  UNL1        0.0415
     21 C         141.2912  143.3712  169.9515 C.ar    1  UNL1        0.0329
     22 C         142.6994  142.9936  170.3039 C.ar    1  UNL1        0.1426
     23 F         143.5706  143.9599  171.0504 F       1  UNL1       -0.2041
     24 C         143.2365  141.6496  169.9099 C.ar    1  UNL1        0.0624
     25 C         142.3654  140.6832  169.1634 C.ar    1  UNL1        0.1760
     26 F         142.9025  139.3393  168.7694 F       1  UNL1       -0.2009
     27 N         137.7525  143.3225  162.8794 N.pl3   1  UNL1       -0.3175
     28 H         136.8638  143.2865  163.3015 H       1  UNL1        0.1482
     29 C         138.7220  144.4008  163.2636 C.3     1  UNL1        0.0706
     30 C         138.9307  144.7415  164.7093 C.3     1  UNL1        0.0212
     31 C         139.4828  145.1383  162.2018 C.3     1  UNL1        0.0212
@<TRIPOS>BOND
     1     1     2    1
     2     2     3   ar
     3     3     4   ar
     4     4     5   ar
     5     5     6   ar
     6     6    27    1
     7    27    29    1
     8    29    30    1
     9    29    31    1
    10     6     7   ar
    11     7    12    1
    12    12    13    1
    13    13    14    1
    14    14    15    1
    15    15    18    1
    16    18    19    1
    17    19    20   ar
    18    20    21   ar
    19    21    22   ar
    20    22    23    1
    21    22    24   ar
    22    24    25   ar
    23    25    26    1
    24    15    16    1
    25    16    17    1
    26     7     8   ar
    27     8     9   ar
    28     9    10   ar
    29    10    11   ar
    30    11     2   ar
    31     9     4   ar
    32    17    12    1
    33    25    19   ar
    34    27    28    1
@<TRIPOS>MOLECULE
*****
 31 34 0 0 0
SMALL
GASTEIGER

@<TRIPOS>ATOM
      1 C         144.4061  141.5181  155.6178 C.3     1  UNL1        0.0521
      2 C         144.2608  141.4333  157.1083 C.ar    1  UNL1        0.0610
      3 C         143.7334  140.1794  157.7403 C.ar    1  UNL1        0.0354
      4 C         143.5880  140.0945  159.2308 C.ar    1  UNL1        0.1031
      5 N         143.0606  138.8405  159.8628 N.ar    1  UNL1       -0.2264
      6 C         142.9152  138.7556  161.3533 C.ar    1  UNL1        0.1603
      7 C         143.2973  139.9248  162.2119 C.ar    1  UNL1        0.1634
      8 N         143.8247  141.1788  161.5799 N.ar    1  UNL1       -0.2247
      9 C         143.9701  141.2636  160.0894 C.ar    1  UNL1        0.1195
     10 C         144.4975  142.5176  159.4574 C.ar    1  UNL1        0.1190
     11 N         144.6428  142.6024  157.9669 N.ar    1  UNL1       -0.2465
     12 N         143.1520  139.8400  163.7024 N.pl3   1  UNL1       -0.2908
     13 C         142.1113  140.6627  164.4025 C.3     1  UNL1        0.0960
     14 C         141.9659  140.5778  165.8930 C.3     1  UNL1        0.0650
     15 C         142.8613  139.6703  166.6835 C.3     1  UNL1        0.1694
     16 C         143.9020  138.8476  165.9834 C.3     1  UNL1        0.0650
     17 C         144.0474  138.9325  164.4928 C.3     1  UNL1        0.0960
     18 O         142.7159  139.5855  168.1740 O.3     1  UNL1       -0.4768
     19 C         141.8399  140.5637  168.8990 C.ar    1  UNL1        0.1657
     20 C         140.4378  140.1823  169.2711 C.ar    1  UNL1        0.0415
     21 C         139.5617  141.1606  169.9962 C.ar    1  UNL1        0.0329
     22 C         140.0879  142.5202  170.3491 C.ar    1  UNL1        0.1426
     23 F         139.2119  143.4984  171.0741 F       1  UNL1       -0.2041
     24 C         141.4901  142.9016  169.9769 C.ar    1  UNL1        0.0624
     25 C         142.3661  141.9234  169.2519 C.ar    1  UNL1        0.1760
     26 F         143.7682  142.3048  168.8798 F       1  UNL1       -0.2009
     27 N         142.3878  137.5017  161.9853 N.pl3   1  UNL1       -0.3175
     28 H         142.9205  136.6743  161.9563 H       1  UNL1        0.1482
     29 C         141.0488  137.5084  162.6614 C.3     1  UNL1        0.0706
     30 C         140.9266  137.0613  164.0879 C.3     1  UNL1        0.0212
     31 C         139.8320  137.9624  161.9108 C.3     1  UNL1        0.0212
@<TRIPOS>BOND
     1     1     2    1
     2     2     3   ar
     3     3     4   ar
     4     4     5   ar
     5     5     6   ar
     6     6    27    1
     7    27    29    1
     8    29    30    1
     9    29    31    1
    10     6     7   ar
    11     7    12    1
    12    12    13    1
    13    13    14    1
    14    14    15    1
    15    15    18    1
    16    18    19    1
    17    19    20   ar
    18    20    21   ar
    19    21    22   ar
    20    22    23    1
    21    22    24   ar
    22    24    25   ar
    23    25    26    1
    24    15    16    1
    25    16    17    1
    26     7     8   ar
    27     8     9   ar
    28     9    10   ar
    29    10    11   ar
    30    11     2   ar
    31     9     4   ar
    32    17    12    1
    33    25    19   ar
    34    27    28    1
@<TRIPOS>MOLECULE
*****
 31 34 0 0 0
SMALL
GASTEIGER

@<TRIPOS>ATOM
      1 C         140.2010  145.7226  154.7092 C.3     1  UNL1        0.0521
      2 C         140.0696  145.1368  156.0839 C.ar    1  UNL1        0.0610
      3 C         141.0125  145.5579  157.1718 C.ar    1  UNL1        0.0354
      4 C         140.8811  144.9722  158.5465 C.ar    1  UNL1        0.1031
      5 N         141.8241  145.3933  159.6344 N.ar    1  UNL1       -0.2264
      6 C         141.6927  144.8076  161.0091 C.ar    1  UNL1        0.1603
      7 C         140.6183  143.8007  161.2958 C.ar    1  UNL1        0.1634
      8 N         139.6755  143.3797  160.2079 N.ar    1  UNL1       -0.2247
      9 C         139.8068  143.9654  158.8332 C.ar    1  UNL1        0.1195
     10 C         138.8640  143.5443  157.7453 C.ar    1  UNL1        0.1190
     11 N         138.9953  144.1301  156.3706 N.ar    1  UNL1       -0.2465
     12 N         140.4870  143.2150  162.6704 N.pl3   1  UNL1       -0.2908
     13 C         140.9513  141.8137  162.9361 C.3     1  UNL1        0.0960
     14 C         140.8199  141.2280  164.3108 C.3     1  UNL1        0.0650
     15 C         140.2242  142.0436  165.4197 C.3     1  UNL1        0.1694
     16 C         139.7598  143.4450  165.1541 C.3     1  UNL1        0.0650
     17 C         139.8912  144.0307  163.7794 C.3     1  UNL1        0.0960
     18 O         140.0928  141.4579  166.7944 O.3     1  UNL1       -0.4768
     19 C         140.9305  141.9895  167.9194 C.ar    1  UNL1        0.1657
     20 C         140.2882  142.7653  169.0309 C.ar    1  UNL1        0.0415
     21 C         141.1259  143.2970  170.1559 C.ar    1  UNL1        0.0329
     22 C         142.6058  143.0528  170.1694 C.ar    1  UNL1        0.1426
     23 F         143.4435  143.5844  171.2944 F       1  UNL1       -0.2041
     24 C         143.2481  142.2769  169.0578 C.ar    1  UNL1        0.0624
     25 C         142.4104  141.7453  167.9328 C.ar    1  UNL1        0.1760
     26 F         143.0526  140.9694  166.8213 F       1  UNL1       -0.2009
     27 N         142.6356  145.2286  162.0970 N.pl3   1  UNL1       -0.3175
     28 H         142.6069  146.1495  162.4441 H       1  UNL1        0.1482
     29 C         143.6222  144.2467  162.6560 C.3     1  UNL1        0.0706
     30 C         144.3606  143.3195  161.7368 C.3     1  UNL1        0.0212
     31 C         143.8704  144.1920  164.1343 C.3     1  UNL1        0.0212
@<TRIPOS>BOND
     1     1     2    1
     2     2     3   ar
     3     3     4   ar
     4     4     5   ar
     5     5     6   ar
     6     6    27    1
     7    27    29    1
     8    29    30    1
     9    29    31    1
    10     6     7   ar
    11     7    12    1
    12    12    13    1
    13    13    14    1
    14    14    15    1
    15    15    18    1
    16    18    19    1
    17    19    20   ar
    18    20    21   ar
    19    21    22   ar
    20    22    23    1
    21    22    24   ar
    22    24    25   ar
    23    25    26    1
    24    15    16    1
    25    16    17    1
    26     7     8   ar
    27     8     9   ar
    28     9    10   ar
    29    10    11   ar
    30    11     2   ar
    31     9     4   ar
    32    17    12    1
    33    25    19   ar
    34    27    28    1
@<TRIPOS>MOLECULE
*****
 31 34 0 0 0
SMALL
GASTEIGER

@<TRIPOS>ATOM
      1 C         141.9301  137.9528  155.5341 C.3     1  UNL1        0.0521
      2 C         141.8130  138.1380  157.0180 C.ar    1  UNL1        0.0610
      3 C         140.5656  138.7304  157.6037 C.ar    1  UNL1        0.0354
      4 C         140.4484  138.9156  159.0876 C.ar    1  UNL1        0.1031
      5 N         139.2009  139.5079  159.6733 N.ar    1  UNL1       -0.2264
      6 C         139.0837  139.6931  161.1572 C.ar    1  UNL1        0.1603
      7 C         140.2140  139.2859  162.0554 C.ar    1  UNL1        0.1634
      8 N         141.4614  138.6936  161.4697 N.ar    1  UNL1       -0.2247
      9 C         141.5786  138.5084  159.9858 C.ar    1  UNL1        0.1195
     10 C         142.8260  137.9161  159.4001 C.ar    1  UNL1        0.1190
     11 N         142.9432  137.7309  157.9162 N.ar    1  UNL1       -0.2465
     12 N         140.0969  139.4711  163.5393 N.pl3   1  UNL1       -0.2908
     13 C         140.8620  140.5663  164.2212 C.3     1  UNL1        0.0960
     14 C         140.7449  140.7515  165.7051 C.3     1  UNL1        0.0650
     15 C         139.8625  139.8415  166.5071 C.3     1  UNL1        0.1694
     16 C         139.0973  138.7463  165.8253 C.3     1  UNL1        0.0650
     17 C         139.2145  138.5611  164.3414 C.3     1  UNL1        0.0960
     18 O         139.7453  140.0267  167.9911 O.3     1  UNL1       -0.4768
     19 C         140.7042  140.9267  168.7126 C.ar    1  UNL1        0.1657
     20 C         140.2959  142.3250  169.0701 C.ar    1  UNL1        0.0415
     21 C         141.2547  143.2251  169.7917 C.ar    1  UNL1        0.0329
     22 C         142.6219  142.7267  170.1557 C.ar    1  UNL1        0.1426
     23 F         143.5807  143.6267  170.8772 F       1  UNL1       -0.2041
     24 C         143.0302  141.3283  169.7981 C.ar    1  UNL1        0.0624
     25 C         142.0713  140.4283  169.0766 C.ar    1  UNL1        0.1760
     26 F         142.4797  139.0300  168.7190 F       1  UNL1       -0.2009
     27 N         137.8363  140.2855  161.7429 N.pl3   1  UNL1       -0.3175
     28 H         137.0200  139.7401  161.8166 H       1  UNL1        0.1482
     29 C         137.8327  141.7088  162.2165 C.3     1  UNL1        0.0706
     30 C         137.4017  142.0324  163.6163 C.3     1  UNL1        0.0212
     31 C         138.2599  142.8085  161.2901 C.3     1  UNL1        0.0212
@<TRIPOS>BOND
     1     1     2    1
     2     2     3   ar
     3     3     4   ar
     4     4     5   ar
     5     5     6   ar
     6     6    27    1
     7    27    29    1
     8    29    30    1
     9    29    31    1
    10     6     7   ar
    11     7    12    1
    12    12    13    1
    13    13    14    1
    14    14    15    1
    15    15    18    1
    16    18    19    1
    17    19    20   ar
    18    20    21   ar
    19    21    22   ar
    20    22    23    1
    21    22    24   ar
    22    24    25   ar
    23    25    26    1
    24    15    16    1
    25    16    17    1
    26     7     8   ar
    27     8     9   ar
    28     9    10   ar
    29    10    11   ar
    30    11     2   ar
    31     9     4   ar
    32    17    12    1
    33    25    19   ar
    34    27    28    1
@<TRIPOS>MOLECULE
*****
 31 34 0 0 0
SMALL
GASTEIGER

@<TRIPOS>ATOM
      1 C         141.0666  146.3842  153.9578 C.3     1  UNL1        0.0521
      2 C         141.1020  145.4242  155.1099 C.ar    1  UNL1        0.0610
      3 C         141.4254  145.9188  156.4886 C.ar    1  UNL1        0.0354
      4 C         141.4608  144.9589  157.6406 C.ar    1  UNL1        0.1031
      5 N         141.7842  145.4535  159.0194 N.ar    1  UNL1       -0.2264
      6 C         141.8196  144.4936  160.1714 C.ar    1  UNL1        0.1603
      7 C         141.5316  143.0390  159.9448 C.ar    1  UNL1        0.1634
      8 N         141.2082  142.5444  158.5661 N.ar    1  UNL1       -0.2247
      9 C         141.1728  143.5043  157.4140 C.ar    1  UNL1        0.1195
     10 C         140.8494  143.0098  156.0354 C.ar    1  UNL1        0.1190
     11 N         140.8140  143.9697  154.8833 N.ar    1  UNL1       -0.2465
     12 N         141.5670  142.0790  161.0968 N.pl3   1  UNL1       -0.2908
     13 C         142.8712  141.4824  161.5361 C.3     1  UNL1        0.0960
     14 C         142.9066  140.5225  162.6882 C.3     1  UNL1        0.0650
     15 C         141.6378  140.1592  163.4010 C.3     1  UNL1        0.1694
     16 C         140.3335  140.7558  162.9617 C.3     1  UNL1        0.0650
     17 C         140.2981  141.7157  161.8096 C.3     1  UNL1        0.0960
     18 O         141.6732  139.1992  164.5530 O.3     1  UNL1       -0.4768
     19 C         140.4121  138.8735  165.2969 C.ar    1  UNL1        0.1657
     20 C         139.6080  137.6656  164.9170 C.ar    1  UNL1        0.0415
     21 C         138.3468  137.3398  165.6609 C.ar    1  UNL1        0.0329
     22 C         137.8897  138.2221  166.7847 C.ar    1  UNL1        0.1426
     23 F         136.6286  137.8964  167.5285 F       1  UNL1       -0.2041
     24 C         138.6939  139.4300  167.1645 C.ar    1  UNL1        0.0624
     25 C         139.9550  139.7557  166.4206 C.ar    1  UNL1        0.1760
     26 F         140.7591  140.9636  166.8005 F       1  UNL1       -0.2009
     27 N         142.1430  144.9881  161.5501 N.pl3   1  UNL1       -0.3175
     28 H         143.0810  145.1207  161.8181 H       1  UNL1        0.1482
     29 C         141.0372  145.2808  162.5205 C.3     1  UNL1        0.0706
     30 C         141.1905  144.9112  163.9661 C.3     1  UNL1        0.0212
     31 C         139.7780  145.9432  162.0452 C.3     1  UNL1        0.0212
@<TRIPOS>BOND
     1     1     2    1
     2     2     3   ar
     3     3     4   ar
     4     4     5   ar
     5     5     6   ar
     6     6    27    1
     7    27    29    1
     8    29    30    1
     9    29    31    1
    10     6     7   ar
    11     7    12    1
    12    12    13    1
    13    13    14    1
    14    14    15    1
    15    15    18    1
    16    18    19    1
    17    19    20   ar
    18    20    21   ar
    19    21    22   ar
    20    22    23    1
    21    22    24   ar
    22    24    25   ar
    23    25    26    1
    24    15    16    1
    25    16    17    1
    26     7     8   ar
    27     8     9   ar
    28     9    10   ar
    29    10    11   ar
    30    11     2   ar
    31     9     4   ar
    32    17    12    1
    33    25    19   ar
    34    27    28    1
@<TRIPOS>MOLECULE
*****
 31 34 0 0 0
SMALL
GASTEIGER

@<TRIPOS>ATOM
      1 C         142.7659  139.2301  154.4111 C.3     1  UNL1        0.0521
      2 C         142.3537  139.2683  155.8528 C.ar    1  UNL1        0.0610
      3 C         143.3910  139.4188  156.9258 C.ar    1  UNL1        0.0354
      4 C         142.9788  139.4569  158.3675 C.ar    1  UNL1        0.1031
      5 N         144.0163  139.6074  159.4404 N.ar    1  UNL1       -0.2264
      6 C         143.6041  139.6455  160.8822 C.ar    1  UNL1        0.1603
      7 C         142.1544  139.5332  161.2510 C.ar    1  UNL1        0.1634
      8 N         141.1170  139.3827  160.1781 N.ar    1  UNL1       -0.2247
      9 C         141.5293  139.3446  158.7363 C.ar    1  UNL1        0.1195
     10 C         140.4919  139.1941  157.6634 C.ar    1  UNL1        0.1190
     11 N         140.9041  139.1559  156.2217 N.ar    1  UNL1       -0.2465
     12 N         141.7422  139.5713  162.6927 N.pl3   1  UNL1       -0.2908
     13 C         141.4218  140.8826  163.3468 C.3     1  UNL1        0.0960
     14 C         141.0096  140.9208  164.7885 C.3     1  UNL1        0.0650
     15 C         140.9177  139.6476  165.5762 C.3     1  UNL1        0.1694
     16 C         141.2381  138.3362  164.9222 C.3     1  UNL1        0.0650
     17 C         141.6503  138.2980  163.4804 C.3     1  UNL1        0.0960
     18 O         140.5055  139.6857  167.0180 O.3     1  UNL1       -0.4768
     19 C         141.1400  140.6716  167.9536 C.ar    1  UNL1        0.1657
     20 C         140.4824  141.9957  168.2067 C.ar    1  UNL1        0.0415
     21 C         141.1168  142.9817  169.1424 C.ar    1  UNL1        0.0329
     22 C         142.4090  142.6434  169.8249 C.ar    1  UNL1        0.1426
     23 F         143.0435  143.6292  170.7605 F       1  UNL1       -0.2041
     24 C         143.0667  141.3192  169.5718 C.ar    1  UNL1        0.0624
     25 C         142.4322  140.3333  168.6361 C.ar    1  UNL1        0.1760
     26 F         143.0899  139.0092  168.3831 F       1  UNL1       -0.2009
     27 N         144.6414  139.7960  161.9551 N.pl3   1  UNL1       -0.3175
     28 H         145.1201  139.0042  162.2915 H       1  UNL1        0.1482
     29 C         144.9495  141.1529  162.5155 C.3     1  UNL1        0.0706
     30 C         145.6818  141.2776  163.8186 C.3     1  UNL1        0.0212
     31 C         144.5253  142.3851  161.7727 C.3     1  UNL1        0.0212
@<TRIPOS>BOND
     1     1     2    1
     2     2     3   ar
     3     3     4   ar
     4     4     5   ar
     5     5     6   ar
     6     6    27    1
     7    27    29    1
     8    29    30    1
     9    29    31    1
    10     6     7   ar
    11     7    12    1
    12    12    13    1
    13    13    14    1
    14    14    15    1
    15    15    18    1
    16    18    19    1
    17    19    20   ar
    18    20    21   ar
    19    21    22   ar
    20    22    23    1
    21    22    24   ar
    22    24    25   ar
    23    25    26    1
    24    15    16    1
    25    16    17    1
    26     7     8   ar
    27     8     9   ar
    28     9    10   ar
    29    10    11   ar
    30    11     2   ar
    31     9     4   ar
    32    17    12    1
    33    25    19   ar
    34    27    28    1
@<TRIPOS>MOLECULE
*****
 31 34 0 0 0
SMALL
GASTEIGER

@<TRIPOS>ATOM
      1 C         136.7313  141.4824  154.2591 C.3     1  UNL1        0.0521
      2 C         137.2540  141.8053  155.6276 C.ar    1  UNL1        0.0610
      3 C         137.0595  140.8332  156.7533 C.ar    1  UNL1        0.0354
      4 C         137.5822  141.1560  158.1217 C.ar    1  UNL1        0.1031
      5 N         137.3877  140.1839  159.2474 N.ar    1  UNL1       -0.2264
      6 C         137.9104  140.5067  160.6158 C.ar    1  UNL1        0.1603
      7 C         138.6276  141.8016  160.8585 C.ar    1  UNL1        0.1634
      8 N         138.8221  142.7737  159.7328 N.ar    1  UNL1       -0.2247
      9 C         138.2994  142.4509  158.3644 C.ar    1  UNL1        0.1195
     10 C         138.4939  143.4229  157.2387 C.ar    1  UNL1        0.1190
     11 N         137.9712  143.1001  155.8703 N.ar    1  UNL1       -0.2465
     12 N         139.1503  142.1244  162.2270 N.pl3   1  UNL1       -0.2908
     13 C         138.2119  142.6040  163.2944 C.3     1  UNL1        0.0960
     14 C         138.7346  142.9268  164.6628 C.3     1  UNL1        0.0650
     15 C         140.1956  142.7701  164.9638 C.3     1  UNL1        0.1694
     16 C         141.1341  142.2905  163.8964 C.3     1  UNL1        0.0650
     17 C         140.6114  141.9677  162.5280 C.3     1  UNL1        0.0960
     18 O         140.7183  143.0929  166.3323 O.3     1  UNL1       -0.4768
     19 C         141.0268  141.9869  167.2974 C.ar    1  UNL1        0.1657
     20 C         139.9413  141.0487  167.7349 C.ar    1  UNL1        0.0415
     21 C         140.2498  139.9427  168.7001 C.ar    1  UNL1        0.0329
     22 C         141.6439  139.7749  169.2278 C.ar    1  UNL1        0.1426
     23 F         141.9524  138.6689  170.1930 F       1  UNL1       -0.2041
     24 C         142.7294  140.7131  168.7903 C.ar    1  UNL1        0.0624
     25 C         142.4209  141.8191  167.8251 C.ar    1  UNL1        0.1760
     26 F         143.5064  142.7573  167.3877 F       1  UNL1       -0.2009
     27 N         137.7159  139.5346  161.7415 N.pl3   1  UNL1       -0.3175
     28 H         136.8657  139.5198  162.2377 H       1  UNL1        0.1482
     29 C         138.8168  138.5852  162.1113 C.3     1  UNL1        0.0706
     30 C         139.9183  138.2972  161.1348 C.3     1  UNL1        0.0212
     31 C         138.8161  137.9239  163.4577 C.3     1  UNL1        0.0212
@<TRIPOS>BOND
     1     1     2    1
     2     2     3   ar
     3     3     4   ar
     4     4     5   ar
     5     5     6   ar
     6     6    27    1
     7    27    29    1
     8    29    30    1
     9    29    31    1
    10     6     7   ar
    11     7    12    1
    12    12    13    1
    13    13    14    1
    14    14    15    1
    15    15    18    1
    16    18    19    1
    17    19    20   ar
    18    20    21   ar
    19    21    22   ar
    20    22    23    1
    21    22    24   ar
    22    24    25   ar
    23    25    26    1
    24    15    16    1
    25    16    17    1
    26     7     8   ar
    27     8     9   ar
    28     9    10   ar
    29    10    11   ar
    30    11     2   ar
    31     9     4   ar
    32    17    12    1
    33    25    19   ar
    34    27    28    1
@<TRIPOS>MOLECULE
*****
 31 34 0 0 0
SMALL
GASTEIGER

@<TRIPOS>ATOM
      1 C         138.3398  145.1120  165.8158 C.3     1  UNL1        0.0521
      2 C         138.7678  144.3462  164.5991 C.ar    1  UNL1        0.0610
      3 C         138.9303  142.8567  164.6692 C.ar    1  UNL1        0.0354
      4 C         139.3583  142.0908  163.4525 C.ar    1  UNL1        0.1031
      5 N         139.5208  140.6013  163.5226 N.ar    1  UNL1       -0.2264
      6 C         139.9488  139.8354  162.3060 C.ar    1  UNL1        0.1603
      7 C         140.2143  140.5592  161.0192 C.ar    1  UNL1        0.1634
      8 N         140.0518  142.0486  160.9491 N.ar    1  UNL1       -0.2247
      9 C         139.6238  142.8145  162.1658 C.ar    1  UNL1        0.1195
     10 C         139.4613  144.3040  162.0957 C.ar    1  UNL1        0.1190
     11 N         139.0333  145.0698  163.3124 N.ar    1  UNL1       -0.2465
     12 N         140.6423  139.7933  159.8025 N.pl3   1  UNL1       -0.2908
     13 C         142.0826  139.7946  159.3837 C.3     1  UNL1        0.0960
     14 C         142.5106  139.0288  158.1670 C.3     1  UNL1        0.0650
     15 C         141.4983  138.2616  157.3692 C.3     1  UNL1        0.1694
     16 C         140.0579  138.2603  157.7879 C.3     1  UNL1        0.0650
     17 C         139.6299  139.0261  159.0046 C.3     1  UNL1        0.0960
     18 O         141.9263  137.4958  156.1525 O.3     1  UNL1       -0.4768
     19 C         142.1608  136.0169  156.2412 C.ar    1  UNL1        0.1657
     20 C         143.1600  135.4733  157.2190 C.ar    1  UNL1        0.0415
     21 C         143.3945  133.9944  157.3077 C.ar    1  UNL1        0.0329
     22 C         142.6298  133.0591  156.4187 C.ar    1  UNL1        0.1426
     23 F         142.8643  131.5802  156.5074 F       1  UNL1       -0.2041
     24 C         141.6306  133.6027  155.4409 C.ar    1  UNL1        0.0624
     25 C         141.3961  135.0816  155.3521 C.ar    1  UNL1        0.1760
     26 F         140.3969  135.6252  154.3744 F       1  UNL1       -0.2009
     27 N         140.1113  138.3459  162.3761 N.pl3   1  UNL1       -0.3175
     28 H         139.4368  137.7574  161.9662 H       1  UNL1        0.1482
     29 C         141.3014  137.7531  163.0706 C.3     1  UNL1        0.0706
     30 C         142.6819  138.0079  162.5422 C.3     1  UNL1        0.0212
     31 C         141.1109  136.9056  164.2934 C.3     1  UNL1        0.0212
@<TRIPOS>BOND
     1     1     2    1
     2     2     3   ar
     3     3     4   ar
     4     4     5   ar
     5     5     6   ar
     6     6    27    1
     7    27    29    1
     8    29    30    1
     9    29    31    1
    10     6     7   ar
    11     7    12    1
    12    12    13    1
    13    13    14    1
    14    14    15    1
    15    15    18    1
    16    18    19    1
    17    19    20   ar
    18    20    21   ar
    19    21    22   ar
    20    22    23    1
    21    22    24   ar
    22    24    25   ar
    23    25    26    1
    24    15    16    1
    25    16    17    1
    26     7     8   ar
    27     8     9   ar
    28     9    10   ar
    29    10    11   ar
    30    11     2   ar
    31     9     4   ar
    32    17    12    1
    33    25    19   ar
    34    27    28    1
