@<TRIPOS>MOLECULE
*****
 25 27 0 0 0
SMALL
GASTEIGER

@<TRIPOS>ATOM
      1 C         141.7410  140.1036  165.3829 C.3     1  UNL1        0.1456
      2 O         142.4321  139.5061  166.5727 O.3     1  UNL1       -0.3768
      3 H         143.3736  139.7383  166.5501 H       1  UNL1        0.2112
      4 C         143.0409  140.6959  164.9253 C.ar    1  UNL1        0.0264
      5 C         143.2900  142.1671  165.0786 C.ar    1  UNL1        0.0015
      6 C         144.5900  142.7593  164.6209 C.ar    1  UNL1        0.0204
      7 C         145.6407  141.8804  164.0099 C.ar    1  UNL1        0.0989
      8 N         145.3916  140.4092  163.8566 N.ar    1  UNL1       -0.2426
      9 C         144.0917  139.8169  164.3142 C.ar    1  UNL1        0.0972
     10 C         140.4411  139.5113  165.8406 C.ar    1  UNL1        0.0264
     11 C         139.7559  140.0568  167.0584 C.ar    1  UNL1        0.0015
     12 C         138.4560  139.4644  167.5160 C.ar    1  UNL1        0.0204
     13 C         137.8413  138.3268  166.7559 C.ar    1  UNL1        0.0989
     14 N         138.5265  137.7813  165.5381 N.ar    1  UNL1       -0.2426
     15 C         139.8264  138.3736  165.0805 C.ar    1  UNL1        0.0972
     16 C         141.0499  140.7011  164.1933 C.3     1  UNL1        0.1131
     17 C         140.0099  141.7647  164.3860 C.ar    1  UNL1       -0.0049
     18 C         138.6414  141.5910  163.7968 C.ar    1  UNL1       -0.0029
     19 C         137.6014  142.6546  163.9895 C.ar    1  UNL1       -0.0003
     20 C         137.9298  143.8919  164.7714 C.ar    1  UNL1       -0.0000
     21 C         139.2983  144.0655  165.3606 C.ar    1  UNL1       -0.0003
     22 C         140.3383  143.0020  165.1679 C.ar    1  UNL1       -0.0029
     23 C         141.4715  138.8893  162.1523 C.3     1  UNL1        0.0900
     24 N         141.3988  140.2350  162.8108 N.3     1  UNL1       -0.2654
     25 C         141.7776  141.2323  161.7564 C.3     1  UNL1        0.0900
@<TRIPOS>BOND
     1    23    24    1
     2    24    25    1
     3    24    16    1
     4    16    17    1
     5    17    18   ar
     6    18    19   ar
     7    19    20   ar
     8    20    21   ar
     9    21    22   ar
    10    16     1    1
    11     1     2    1
    12     1     4    1
    13     4     5   ar
    14     5     6   ar
    15     6     7   ar
    16     7     8   ar
    17     8     9   ar
    18     1    10    1
    19    10    11   ar
    20    11    12   ar
    21    12    13   ar
    22    13    14   ar
    23    14    15   ar
    24    22    17   ar
    25     9     4   ar
    26    15    10   ar
    27     2     3    1
@<TRIPOS>MOLECULE
*****
 25 27 0 0 0
SMALL
GASTEIGER

@<TRIPOS>ATOM
      1 C         141.7184  140.0716  165.5088 C.3     1  UNL1        0.1456
      2 O         142.4189  139.5078  166.7095 O.3     1  UNL1       -0.3768
      3 H         141.7770  139.0457  167.2710 H       1  UNL1        0.2112
      4 C         140.4179  139.5129  166.0052 C.ar    1  UNL1        0.0264
      5 C         139.6938  138.4724  165.2033 C.ar    1  UNL1        0.0015
      6 C         138.3932  137.9137  165.6997 C.ar    1  UNL1        0.0204
      7 C         137.8167  138.3956  166.9980 C.ar    1  UNL1        0.0989
      8 N         138.5408  139.4362  167.7998 N.ar    1  UNL1       -0.2426
      9 C         139.8413  139.9948  167.3035 C.ar    1  UNL1        0.0972
     10 C         143.0190  140.6303  165.0125 C.ar    1  UNL1        0.0264
     11 C         143.2881  142.1028  165.1085 C.ar    1  UNL1        0.0015
     12 C         144.5887  142.6615  164.6121 C.ar    1  UNL1        0.0204
     13 C         145.6202  141.7476  164.0197 C.ar    1  UNL1        0.0989
     14 N         145.3510  140.2751  163.9237 N.ar    1  UNL1       -0.2426
     15 C         144.0505  139.7164  164.4200 C.ar    1  UNL1        0.0972
     16 C         141.0180  140.6354  164.3082 C.3     1  UNL1        0.1131
     17 C         140.0033  141.7272  164.4758 C.ar    1  UNL1       -0.0049
     18 C         140.3470  142.9559  165.2646 C.ar    1  UNL1       -0.0029
     19 C         139.3322  144.0478  165.4322 C.ar    1  UNL1       -0.0003
     20 C         137.9737  143.9109  164.8111 C.ar    1  UNL1       -0.0000
     21 C         137.6300  142.6822  164.0223 C.ar    1  UNL1       -0.0003
     22 C         138.6448  141.5903  163.8547 C.ar    1  UNL1       -0.0029
     23 C         141.3596  138.7358  162.3332 C.3     1  UNL1        0.0900
     24 N         141.3324  140.1073  162.9398 N.3     1  UNL1       -0.2654
     25 C         141.7197  141.0528  161.8417 C.3     1  UNL1        0.0900
@<TRIPOS>BOND
     1    23    24    1
     2    24    25    1
     3    24    16    1
     4    16    17    1
     5    17    18   ar
     6    18    19   ar
     7    19    20   ar
     8    20    21   ar
     9    21    22   ar
    10    16     1    1
    11     1     2    1
    12     1     4    1
    13     4     5   ar
    14     5     6   ar
    15     6     7   ar
    16     7     8   ar
    17     8     9   ar
    18     1    10    1
    19    10    11   ar
    20    11    12   ar
    21    12    13   ar
    22    13    14   ar
    23    14    15   ar
    24    22    17   ar
    25     9     4   ar
    26    15    10   ar
    27     2     3    1
@<TRIPOS>MOLECULE
*****
 25 27 0 0 0
SMALL
GASTEIGER

@<TRIPOS>ATOM
      1 C         138.7245  141.1980  164.3102 C.3     1  UNL1        0.1456
      2 O         137.2413  141.3003  164.1106 O.3     1  UNL1       -0.3768
      3 H         136.8161  140.4864  164.4230 H       1  UNL1        0.2112
      4 C         138.5515  139.8268  164.8932 C.ar    1  UNL1        0.0264
      5 C         137.9576  139.6628  166.2608 C.ar    1  UNL1        0.0015
      6 C         137.7846  138.2915  166.8438 C.ar    1  UNL1        0.0204
      7 C         138.2055  137.0844  166.0591 C.ar    1  UNL1        0.0989
      8 N         138.7994  137.2484  164.6915 N.ar    1  UNL1       -0.2426
      9 C         138.9724  138.6196  164.1085 C.ar    1  UNL1        0.0972
     10 C         138.8975  142.5691  163.7272 C.ar    1  UNL1        0.0264
     11 C         139.3249  143.7086  164.6042 C.ar    1  UNL1        0.0015
     12 C         139.4979  145.0798  164.0211 C.ar    1  UNL1        0.0204
     13 C         139.2436  145.3115  162.5611 C.ar    1  UNL1        0.0989
     14 N         138.8162  144.1721  161.6841 N.ar    1  UNL1       -0.2426
     15 C         138.6432  142.8010  162.2671 C.ar    1  UNL1        0.0972
     16 C         140.2076  141.0957  164.5097 C.3     1  UNL1        0.1131
     17 C         140.7733  141.0025  165.8958 C.ar    1  UNL1       -0.0049
     18 C         141.6593  139.8510  166.2684 C.ar    1  UNL1       -0.0029
     19 C         142.2250  139.7578  167.6546 C.ar    1  UNL1       -0.0003
     20 C         141.9045  140.8161  168.6681 C.ar    1  UNL1       -0.0000
     21 C         141.0184  141.9677  168.2955 C.ar    1  UNL1       -0.0003
     22 C         140.4528  142.0609  166.9094 C.ar    1  UNL1       -0.0029
     23 C         141.1574  140.3157  162.0367 C.3     1  UNL1        0.0900
     24 N         141.1252  141.0866  163.3230 N.3     1  UNL1       -0.2654
     25 C         142.3126  142.0024  163.2860 C.3     1  UNL1        0.0900
@<TRIPOS>BOND
     1    23    24    1
     2    24    25    1
     3    24    16    1
     4    16    17    1
     5    17    18   ar
     6    18    19   ar
     7    19    20   ar
     8    20    21   ar
     9    21    22   ar
    10    16     1    1
    11     1     2    1
    12     1     4    1
    13     4     5   ar
    14     5     6   ar
    15     6     7   ar
    16     7     8   ar
    17     8     9   ar
    18     1    10    1
    19    10    11   ar
    20    11    12   ar
    21    12    13   ar
    22    13    14   ar
    23    14    15   ar
    24    22    17   ar
    25     9     4   ar
    26    15    10   ar
    27     2     3    1
@<TRIPOS>MOLECULE
*****
 25 27 0 0 0
SMALL
GASTEIGER

@<TRIPOS>ATOM
      1 C         142.5134  142.3051  166.6500 C.3     1  UNL1        0.1456
      2 O         143.7295  142.8830  167.3113 O.3     1  UNL1       -0.3768
      3 H         143.6279  142.8336  168.2747 H       1  UNL1        0.2112
      4 C         141.9169  142.0197  167.9964 C.ar    1  UNL1        0.0264
      5 C         140.7612  142.8368  168.4931 C.ar    1  UNL1        0.0015
      6 C         140.1646  142.5514  169.8395 C.ar    1  UNL1        0.0204
      7 C         140.7238  141.4489  170.6891 C.ar    1  UNL1        0.0989
      8 N         141.8795  140.6318  170.1924 N.ar    1  UNL1       -0.2426
      9 C         142.4760  140.9172  168.8461 C.ar    1  UNL1        0.0972
     10 C         143.1099  142.5904  165.3037 C.ar    1  UNL1        0.0264
     11 C         143.1193  143.9920  164.7693 C.ar    1  UNL1        0.0015
     12 C         143.7159  144.2773  163.4229 C.ar    1  UNL1        0.0204
     13 C         144.3030  143.1611  162.6109 C.ar    1  UNL1        0.0989
     14 N         144.2937  141.7596  163.1453 N.ar    1  UNL1       -0.2426
     15 C         143.6971  141.4742  164.4916 C.ar    1  UNL1        0.0972
     16 C         141.2974  141.7272  165.9887 C.3     1  UNL1        0.1131
     17 C         140.3846  142.6121  165.1927 C.ar    1  UNL1       -0.0049
     18 C         139.7544  143.8118  165.8357 C.ar    1  UNL1       -0.0029
     19 C         138.8416  144.6967  165.0396 C.ar    1  UNL1       -0.0003
     20 C         138.5590  144.3819  163.6005 C.ar    1  UNL1       -0.0000
     21 C         139.1893  143.1822  162.9574 C.ar    1  UNL1       -0.0003
     22 C         140.1021  142.2973  163.7535 C.ar    1  UNL1       -0.0029
     23 C         141.7786  139.0103  165.8748 C.3     1  UNL1        0.0900
     24 N         140.9941  140.2643  166.1235 N.3     1  UNL1       -0.2654
     25 C         139.6443  139.8193  166.6031 C.3     1  UNL1        0.0900
@<TRIPOS>BOND
     1    23    24    1
     2    24    25    1
     3    24    16    1
     4    16    17    1
     5    17    18   ar
     6    18    19   ar
     7    19    20   ar
     8    20    21   ar
     9    21    22   ar
    10    16     1    1
    11     1     2    1
    12     1     4    1
    13     4     5   ar
    14     5     6   ar
    15     6     7   ar
    16     7     8   ar
    17     8     9   ar
    18     1    10    1
    19    10    11   ar
    20    11    12   ar
    21    12    13   ar
    22    13    14   ar
    23    14    15   ar
    24    22    17   ar
    25     9     4   ar
    26    15    10   ar
    27     2     3    1
@<TRIPOS>MOLECULE
*****
 25 27 0 0 0
SMALL
GASTEIGER

@<TRIPOS>ATOM
      1 C         142.5119  142.2729  166.5881 C.3     1  UNL1        0.1456
      2 O         143.7362  142.8498  167.2349 O.3     1  UNL1       -0.3768
      3 H         144.3531  143.1499  166.5493 H       1  UNL1        0.2112
      4 C         143.0909  142.5612  165.2348 C.ar    1  UNL1        0.0264
      5 C         143.1433  143.9714  164.7263 C.ar    1  UNL1        0.0015
      6 C         143.7224  144.2597  163.3729 C.ar    1  UNL1        0.0204
      7 C         144.2491  143.1377  162.5281 C.ar    1  UNL1        0.0989
      8 N         144.1967  141.7275  163.0365 N.ar    1  UNL1       -0.2426
      9 C         143.6177  141.4392  164.3899 C.ar    1  UNL1        0.0972
     10 C         141.9328  141.9846  167.9414 C.ar    1  UNL1        0.0264
     11 C         140.7760  142.7928  168.4499 C.ar    1  UNL1        0.0015
     12 C         140.1969  142.5044  169.8033 C.ar    1  UNL1        0.0204
     13 C         140.7746  141.4079  170.6481 C.ar    1  UNL1        0.0989
     14 N         141.9315  140.5997  170.1397 N.ar    1  UNL1       -0.2426
     15 C         142.5105  140.8880  168.7863 C.ar    1  UNL1        0.0972
     16 C         141.2876  141.6959  165.9414 C.3     1  UNL1        0.1131
     17 C         140.3698  142.5803  165.1505 C.ar    1  UNL1       -0.0049
     18 C         139.7570  143.7899  165.7917 C.ar    1  UNL1       -0.0029
     19 C         138.8391  144.6742  165.0008 C.ar    1  UNL1       -0.0003
     20 C         138.5341  144.3489  163.5687 C.ar    1  UNL1       -0.0000
     21 C         139.1469  143.1393  162.9274 C.ar    1  UNL1       -0.0003
     22 C         140.0647  142.2549  163.7183 C.ar    1  UNL1       -0.0029
     23 C         141.7635  138.9774  165.8465 C.3     1  UNL1        0.0900
     24 N         140.9811  140.2346  166.0855 N.3     1  UNL1       -0.2654
     25 C         139.6297  139.7955  166.5658 C.3     1  UNL1        0.0900
@<TRIPOS>BOND
     1    23    24    1
     2    24    25    1
     3    24    16    1
     4    16    17    1
     5    17    18   ar
     6    18    19   ar
     7    19    20   ar
     8    20    21   ar
     9    21    22   ar
    10    16     1    1
    11     1     2    1
    12     1     4    1
    13     4     5   ar
    14     5     6   ar
    15     6     7   ar
    16     7     8   ar
    17     8     9   ar
    18     1    10    1
    19    10    11   ar
    20    11    12   ar
    21    12    13   ar
    22    13    14   ar
    23    14    15   ar
    24    22    17   ar
    25     9     4   ar
    26    15    10   ar
    27     2     3    1
@<TRIPOS>MOLECULE
*****
 25 27 0 0 0
SMALL
GASTEIGER

@<TRIPOS>ATOM
      1 C         141.3347  141.3306  164.2285 C.3     1  UNL1        0.1456
      2 O         140.1818  142.0283  163.5695 O.3     1  UNL1       -0.3768
      3 H         140.5023  142.8220  163.1131 H       1  UNL1        0.2112
      4 C         142.2679  142.3857  163.7130 C.ar    1  UNL1        0.0264
      5 C         142.8175  143.4225  164.6474 C.ar    1  UNL1        0.0015
      6 C         143.7508  144.4776  164.1318 C.ar    1  UNL1        0.0204
      7 C         144.1344  144.4959  162.6819 C.ar    1  UNL1        0.0989
      8 N         143.5848  143.4592  161.7474 N.ar    1  UNL1       -0.2426
      9 C         142.6516  142.4041  162.2630 C.ar    1  UNL1        0.0972
     10 C         140.4014  140.2756  164.7440 C.ar    1  UNL1        0.0264
     11 C         139.4729  140.5859  165.8805 C.ar    1  UNL1        0.0015
     12 C         138.5396  139.5307  166.3960 C.ar    1  UNL1        0.0204
     13 C         138.5349  138.1653  165.7751 C.ar    1  UNL1        0.0989
     14 N         139.4635  137.8550  164.6387 N.ar    1  UNL1       -0.2426
     15 C         140.3967  138.9101  164.1231 C.ar    1  UNL1        0.0972
     16 C         142.4874  140.6330  164.8875 C.3     1  UNL1        0.1131
     17 C         142.5796  140.5863  166.3840 C.ar    1  UNL1       -0.0049
     18 C         142.6313  139.2646  167.0913 C.ar    1  UNL1       -0.0029
     19 C         142.7235  139.2179  168.5877 C.ar    1  UNL1       -0.0003
     20 C         142.7640  140.4929  169.3768 C.ar    1  UNL1       -0.0000
     21 C         142.7122  141.8147  168.6695 C.ar    1  UNL1       -0.0003
     22 C         142.6201  141.8614  167.1730 C.ar    1  UNL1       -0.0029
     23 C         143.5259  138.9770  162.9368 C.3     1  UNL1        0.0900
     24 N         143.5481  139.9820  164.0501 N.3     1  UNL1       -0.2654
     25 C         144.9922  140.3220  164.2714 C.3     1  UNL1        0.0900
@<TRIPOS>BOND
     1    23    24    1
     2    24    25    1
     3    24    16    1
     4    16    17    1
     5    17    18   ar
     6    18    19   ar
     7    19    20   ar
     8    20    21   ar
     9    21    22   ar
    10    16     1    1
    11     1     2    1
    12     1     4    1
    13     4     5   ar
    14     5     6   ar
    15     6     7   ar
    16     7     8   ar
    17     8     9   ar
    18     1    10    1
    19    10    11   ar
    20    11    12   ar
    21    12    13   ar
    22    13    14   ar
    23    14    15   ar
    24    22    17   ar
    25     9     4   ar
    26    15    10   ar
    27     2     3    1
@<TRIPOS>MOLECULE
*****
 25 27 0 0 0
SMALL
GASTEIGER

@<TRIPOS>ATOM
      1 C         143.0623  139.7089  164.5212 C.3     1  UNL1        0.1456
      2 O         144.4435  139.1855  164.7827 O.3     1  UNL1       -0.3768
      3 H         144.6691  139.3206  165.7164 H       1  UNL1        0.2112
      4 C         142.9439  140.1156  165.9602 C.ar    1  UNL1        0.0264
      5 C         142.7559  139.0723  167.0214 C.ar    1  UNL1        0.0015
      6 C         142.6376  139.4791  168.4604 C.ar    1  UNL1        0.0204
      7 C         142.7072  140.9291  168.8381 C.ar    1  UNL1        0.0989
      8 N         142.8952  141.9723  167.7768 N.ar    1  UNL1       -0.2426
      9 C         143.0136  141.5656  166.3379 C.ar    1  UNL1        0.0972
     10 C         143.1806  139.3022  163.0823 C.ar    1  UNL1        0.0264
     11 C         142.4036  138.1263  162.5689 C.ar    1  UNL1        0.0015
     12 C         142.5220  137.7196  161.1299 C.ar    1  UNL1        0.0204
     13 C         143.4173  138.4888  160.2044 C.ar    1  UNL1        0.0989
     14 N         144.1943  139.6647  160.7178 N.ar    1  UNL1       -0.2426
     15 C         144.0760  140.0714  162.1567 C.ar    1  UNL1        0.0972
     16 C         141.6811  140.2322  164.2597 C.3     1  UNL1        0.1131
     17 C         140.4965  139.5797  164.9085 C.ar    1  UNL1       -0.0049
     18 C         140.2002  138.1328  164.6464 C.ar    1  UNL1       -0.0029
     19 C         139.0156  137.4803  165.2952 C.ar    1  UNL1       -0.0003
     20 C         138.1272  138.2747  166.2060 C.ar    1  UNL1       -0.0000
     21 C         138.4234  139.7216  166.4682 C.ar    1  UNL1       -0.0003
     22 C         139.6081  140.3742  165.8194 C.ar    1  UNL1       -0.0029
     23 C         142.0811  142.7826  163.2790 C.3     1  UNL1        0.0900
     24 N         141.4845  141.4082  163.3494 N.3     1  UNL1       -0.2654
     25 C         140.5035  141.3248  162.2178 C.3     1  UNL1        0.0900
@<TRIPOS>BOND
     1    23    24    1
     2    24    25    1
     3    24    16    1
     4    16    17    1
     5    17    18   ar
     6    18    19   ar
     7    19    20   ar
     8    20    21   ar
     9    21    22   ar
    10    16     1    1
    11     1     2    1
    12     1     4    1
    13     4     5   ar
    14     5     6   ar
    15     6     7   ar
    16     7     8   ar
    17     8     9   ar
    18     1    10    1
    19    10    11   ar
    20    11    12   ar
    21    12    13   ar
    22    13    14   ar
    23    14    15   ar
    24    22    17   ar
    25     9     4   ar
    26    15    10   ar
    27     2     3    1
@<TRIPOS>MOLECULE
*****
 25 27 0 0 0
SMALL
GASTEIGER

@<TRIPOS>ATOM
      1 C         141.3316  141.7019  164.7578 C.3     1  UNL1        0.1456
      2 O         142.1835  142.6830  165.5073 O.3     1  UNL1       -0.3768
      3 H         141.8611  143.5829  165.3428 H       1  UNL1        0.2112
      4 C         140.5016  142.8310  164.2230 C.ar    1  UNL1        0.0264
      5 C         139.1114  143.0511  164.7416 C.ar    1  UNL1        0.0015
      6 C         138.2814  144.1803  164.2067 C.ar    1  UNL1        0.0204
      7 C         138.8415  145.0894  163.1533 C.ar    1  UNL1        0.0989
      8 N         140.2317  144.8693  162.6347 N.ar    1  UNL1       -0.2426
      9 C         141.0617  143.7401  163.1695 C.ar    1  UNL1        0.0972
     10 C         142.1616  140.5727  165.2926 C.ar    1  UNL1        0.0264
     11 C         142.0478  140.1758  166.7346 C.ar    1  UNL1        0.0015
     12 C         142.8779  139.0465  167.2694 C.ar    1  UNL1        0.0204
     13 C         143.8217  138.3144  166.3622 C.ar    1  UNL1        0.0989
     14 N         143.9354  138.7113  164.9201 N.ar    1  UNL1       -0.2426
     15 C         143.1054  139.8404  164.3853 C.ar    1  UNL1        0.0972
     16 C         140.4797  140.7207  164.0083 C.3     1  UNL1        0.1131
     17 C         139.6666  139.7074  164.7580 C.ar    1  UNL1       -0.0049
     18 C         138.7408  140.1497  165.8522 C.ar    1  UNL1       -0.0029
     19 C         137.9276  139.1364  166.6018 C.ar    1  UNL1       -0.0003
     20 C         138.0403  137.6809  166.2574 C.ar    1  UNL1       -0.0000
     21 C         138.9661  137.2386  165.1632 C.ar    1  UNL1       -0.0003
     22 C         139.7793  138.2518  164.4135 C.ar    1  UNL1       -0.0029
     23 C         141.4911  140.7163  161.4387 C.3     1  UNL1        0.0900
     24 N         140.4410  140.7528  162.5091 N.3     1  UNL1       -0.2654
     25 C         139.1251  140.8397  161.7945 C.3     1  UNL1        0.0900
@<TRIPOS>BOND
     1    23    24    1
     2    24    25    1
     3    24    16    1
     4    16    17    1
     5    17    18   ar
     6    18    19   ar
     7    19    20   ar
     8    20    21   ar
     9    21    22   ar
    10    16     1    1
    11     1     2    1
    12     1     4    1
    13     4     5   ar
    14     5     6   ar
    15     6     7   ar
    16     7     8   ar
    17     8     9   ar
    18     1    10    1
    19    10    11   ar
    20    11    12   ar
    21    12    13   ar
    22    13    14   ar
    23    14    15   ar
    24    22    17   ar
    25     9     4   ar
    26    15    10   ar
    27     2     3    1
@<TRIPOS>MOLECULE
*****
 25 27 0 0 0
SMALL
GASTEIGER

@<TRIPOS>ATOM
      1 C         140.5406  140.7220  166.5073 C.3     1  UNL1        0.1456
      2 O         139.7584  139.7433  167.3322 O.3     1  UNL1       -0.3768
      3 H         140.0037  139.8386  168.2658 H       1  UNL1        0.2112
      4 C         141.2196  141.2243  167.7469 C.ar    1  UNL1        0.0264
      5 C         140.8402  142.5565  168.3225 C.ar    1  UNL1        0.0015
      6 C         141.5192  143.0587  169.5622 C.ar    1  UNL1        0.0204
      7 C         142.5776  142.2287  170.2263 C.ar    1  UNL1        0.0989
      8 N         142.9570  140.8965  169.6507 N.ar    1  UNL1       -0.2426
      9 C         142.2780  140.3943  168.4111 C.ar    1  UNL1        0.0972
     10 C         139.8617  140.2198  165.2677 C.ar    1  UNL1        0.0264
     11 C         138.4435  140.6129  164.9776 C.ar    1  UNL1        0.0015
     12 C         137.7645  140.1106  163.7379 C.ar    1  UNL1        0.0204
     13 C         138.5038  139.2152  162.7884 C.ar    1  UNL1        0.0989
     14 N         139.9220  138.8221  163.0784 N.ar    1  UNL1       -0.2426
     15 C         140.6009  139.3243  164.3180 C.ar    1  UNL1        0.0972
     16 C         141.3228  141.7006  165.6824 C.3     1  UNL1        0.1131
     17 C         140.6142  142.8085  164.9610 C.ar    1  UNL1       -0.0049
     18 C         140.8499  143.0201  163.4949 C.ar    1  UNL1       -0.0029
     19 C         140.1413  144.1280  162.7735 C.ar    1  UNL1       -0.0003
     20 C         139.1969  145.0243  163.5183 C.ar    1  UNL1       -0.0000
     21 C         138.9611  144.8128  164.9845 C.ar    1  UNL1       -0.0003
     22 C         139.6698  143.7049  165.7059 C.ar    1  UNL1       -0.0029
     23 C         143.7376  140.4619  165.1722 C.3     1  UNL1        0.0900
     24 N         142.8137  141.5713  165.5789 N.3     1  UNL1       -0.2654
     25 C         143.6935  142.7343  165.9301 C.3     1  UNL1        0.0900
@<TRIPOS>BOND
     1    23    24    1
     2    24    25    1
     3    24    16    1
     4    16    17    1
     5    17    18   ar
     6    18    19   ar
     7    19    20   ar
     8    20    21   ar
     9    21    22   ar
    10    16     1    1
    11     1     2    1
    12     1     4    1
    13     4     5   ar
    14     5     6   ar
    15     6     7   ar
    16     7     8   ar
    17     8     9   ar
    18     1    10    1
    19    10    11   ar
    20    11    12   ar
    21    12    13   ar
    22    13    14   ar
    23    14    15   ar
    24    22    17   ar
    25     9     4   ar
    26    15    10   ar
    27     2     3    1
