@<TRIPOS>MOLECULE
*****
 30 34 0 0 0
SMALL
GASTEIGER

@<TRIPOS>ATOM
      1 C         140.4780  141.5387  167.5168 C.ar    1  UNL1        0.1346
      2 C         139.9467  140.1717  167.2025 C.ar    1  UNL1        0.0500
      3 C         139.5118  139.8389  165.8060 C.ar    1  UNL1        0.0752
      4 N         139.6081  140.8731  164.7240 N.ar    1  UNL1       -0.2302
      5 C         140.1395  142.2403  165.0383 C.ar    1  UNL1        0.1603
      6 N         140.5744  142.5731  166.4348 N.ar    1  UNL1       -0.2122
      7 C         140.2358  143.2746  163.9562 C.2     1  UNL1        0.0332
      8 C         139.0356  144.1003  163.5989 C.2     1  UNL1        0.0501
      9 C         139.1319  145.1345  162.5169 C.2     1  UNL1        0.2355
     10 N         140.4285  145.3431  161.7919 N.2     1  UNL1       -0.0341
     11 C         141.6287  144.5174  162.1492 C.2     1  UNL1        0.3594
     12 N         143.0294  144.4981  161.6129 N.2     1  UNL1       -0.0344
     13 C         143.7988  143.4519  162.3636 C.2     1  UNL1        0.2320
     14 C         142.8736  142.8246  163.3638 C.2     1  UNL1        0.0409
     15 C         141.5324  143.4831  163.2313 C.3     1  UNL1        0.1630
     16 C         143.3201  142.3356  168.0529 C.3     1  UNL1        0.0241
     17 C         142.3340  142.2700  169.1813 C.3     1  UNL1        0.1038
     18 C         142.7690  142.6028  170.5778 C.3     1  UNL1        0.1618
     19 O         141.7829  142.5371  171.7061 O.3     1  UNL1       -0.3502
     20 C         140.3619  142.1387  171.4382 C.3     1  UNL1        0.1636
     21 C         139.9268  141.8059  170.0418 C.3     1  UNL1        0.1242
     22 N         140.9130  141.8715  168.9133 N.pl3   1  UNL1       -0.2897
     23 C         138.9805  138.4718  165.4917 C.3     1  UNL1        0.1119
     24 C         138.1741  137.2122  165.6066 C.3     1  UNL1        0.0204
     25 C         138.0041  138.3065  166.6184 C.3     1  UNL1        0.0204
     26 S         139.7723  138.1625  164.2559 S.3     1  UNL1        0.0687
     27 C         140.5642  137.8531  163.0201 C.3     1  UNL1        0.1170
     28 N         138.5803  138.4961  163.4086 N.2     1  UNL1       -0.2504
     29 O         140.9643  137.8288  165.1032 O.2     1  UNL1       -0.2461
     30 H         137.7391  138.7814  163.8330 H       1  UNL1        0.1971
@<TRIPOS>BOND
     1    17    16    1
     2    17    18    1
     3    18    19    1
     4    19    20    1
     5    20    21    1
     6    21    22    1
     7    22     1    1
     8     1     2   ar
     9     2     3   ar
    10     3    23    1
    11    23    26    1
    12    26    27    1
    13    26    28    2
    14    26    29    2
    15    23    24    1
    16    24    25    1
    17     3     4   ar
    18     4     5   ar
    19     5     7    1
    20     7     8    2
    21     8     9    1
    22     9    10    2
    23    10    11    1
    24    11    12    2
    25    12    13    1
    26    13    14    2
    27    14    15    1
    28     5     6   ar
    29    22    17    1
    30     6     1   ar
    31    25    23    1
    32    15     7    1
    33    15    11    1
    34    28    30    1
@<TRIPOS>MOLECULE
*****
 30 34 0 0 0
SMALL
GASTEIGER

@<TRIPOS>ATOM
      1 C         141.0062  142.6182  164.4227 C.ar    1  UNL1        0.1346
      2 C         141.7811  141.5566  163.6999 C.ar    1  UNL1        0.0500
      3 C         142.6439  140.6019  164.4708 C.ar    1  UNL1        0.0752
      4 N         142.7317  140.7087  165.9643 N.ar    1  UNL1       -0.2302
      5 C         141.9567  141.7704  166.6872 C.ar    1  UNL1        0.1603
      6 N         141.0940  142.7252  165.9164 N.ar    1  UNL1       -0.2122
      7 C         142.0445  141.8773  168.1808 C.2     1  UNL1        0.0332
      8 C         143.2238  142.5520  168.8164 C.2     1  UNL1        0.0501
      9 C         143.3116  142.6589  170.3099 C.2     1  UNL1        0.2355
     10 N         142.2201  142.0910  171.1680 N.2     1  UNL1       -0.0341
     11 C         141.0408  141.4163  170.5324 C.2     1  UNL1        0.3594
     12 N         139.8211  140.7671  171.1161 N.2     1  UNL1       -0.0344
     13 C         138.9794  140.2590  169.9833 C.2     1  UNL1        0.2320
     14 C         139.6790  140.5942  168.6994 C.2     1  UNL1        0.0409
     15 C         140.9530  141.3095  169.0388 C.3     1  UNL1        0.1630
     16 C         138.0275  142.2626  164.3971 C.3     1  UNL1        0.0241
     17 C         138.6541  143.3952  163.6391 C.3     1  UNL1        0.1038
     18 C         137.7914  144.3499  162.8683 C.3     1  UNL1        0.1618
     19 O         138.4181  145.4825  162.1103 O.3     1  UNL1       -0.3502
     20 C         139.9074  145.6604  162.1231 C.3     1  UNL1        0.1636
     21 C         140.7702  144.7056  162.8939 C.3     1  UNL1        0.1242
     22 N         140.1435  143.5730  163.6519 N.pl3   1  UNL1       -0.2897
     23 C         143.4188  139.5402  163.7480 C.3     1  UNL1        0.1119
     24 C         144.5827  138.7965  163.1630 C.3     1  UNL1        0.0204
     25 C         144.8080  140.0869  163.8940 C.3     1  UNL1        0.0204
     26 S         142.2987  138.6249  163.3510 S.3     1  UNL1        0.0687
     27 C         141.1786  137.7097  162.9541 C.3     1  UNL1        0.1170
     28 N         142.2041  138.1282  164.7633 N.2     1  UNL1       -0.2504
     29 O         142.3932  139.1217  161.9388 O.2     1  UNL1       -0.2461
     30 H         142.8098  138.4854  165.4523 H       1  UNL1        0.1971
@<TRIPOS>BOND
     1    17    16    1
     2    17    18    1
     3    18    19    1
     4    19    20    1
     5    20    21    1
     6    21    22    1
     7    22     1    1
     8     1     2   ar
     9     2     3   ar
    10     3    23    1
    11    23    26    1
    12    26    27    1
    13    26    28    2
    14    26    29    2
    15    23    24    1
    16    24    25    1
    17     3     4   ar
    18     4     5   ar
    19     5     7    1
    20     7     8    2
    21     8     9    1
    22     9    10    2
    23    10    11    1
    24    11    12    2
    25    12    13    1
    26    13    14    2
    27    14    15    1
    28     5     6   ar
    29    22    17    1
    30     6     1   ar
    31    25    23    1
    32    15     7    1
    33    15    11    1
    34    28    30    1
@<TRIPOS>MOLECULE
*****
 30 34 0 0 0
SMALL
GASTEIGER

@<TRIPOS>ATOM
      1 C         140.8273  141.1718  167.4853 C.ar    1  UNL1        0.1346
      2 C         140.2077  139.9008  166.9849 C.ar    1  UNL1        0.0500
      3 C         140.2131  139.5909  165.5172 C.ar    1  UNL1        0.0752
      4 N         140.8381  140.5521  164.5501 N.ar    1  UNL1       -0.2302
      5 C         141.4577  141.8232  165.0505 C.ar    1  UNL1        0.1603
      6 N         141.4523  142.1331  166.5182 N.ar    1  UNL1       -0.2122
      7 C         142.0827  142.7844  164.0833 C.2     1  UNL1        0.0332
      8 C         143.5560  142.7207  163.8089 C.2     1  UNL1        0.0501
      9 C         144.1810  143.6818  162.8417 C.2     1  UNL1        0.2355
     10 N         143.3327  144.7068  162.1489 N.2     1  UNL1       -0.0341
     11 C         141.8595  144.7706  162.4234 C.2     1  UNL1        0.3594
     12 N         140.7779  145.6654  161.8948 N.2     1  UNL1       -0.0344
     13 C         139.4844  145.2573  162.5354 C.2     1  UNL1        0.2320
     14 C         139.7666  144.1102  163.4598 C.2     1  UNL1        0.0409
     15 C         141.2345  143.8094  163.3906 C.3     1  UNL1        0.1630
     16 C         142.5433  139.5790  169.3611 C.3     1  UNL1        0.0241
     17 C         141.6799  140.6853  169.8908 C.3     1  UNL1        0.1038
     18 C         141.6745  140.9952  171.3584 C.3     1  UNL1        0.1618
     19 O         140.8111  142.1015  171.8882 O.3     1  UNL1       -0.3502
     20 C         139.9531  142.8979  170.9505 C.3     1  UNL1        0.1636
     21 C         139.9585  142.5881  169.4828 C.3     1  UNL1        0.1242
     22 N         140.8219  141.4817  168.9530 N.pl3   1  UNL1       -0.2897
     23 C         139.5935  138.3198  165.0168 C.3     1  UNL1        0.1119
     24 C         138.6382  137.1697  164.8959 C.3     1  UNL1        0.0204
     25 C         138.4117  138.2268  165.9359 C.3     1  UNL1        0.0204
     26 S         140.5601  137.9716  163.9239 S.3     1  UNL1        0.0687
     27 C         141.5268  137.6233  162.8312 C.3     1  UNL1        0.1170
     28 N         139.6001  138.5078  162.9038 N.2     1  UNL1       -0.2504
     29 O         141.5202  137.4353  164.9441 O.2     1  UNL1       -0.2461
     30 H         138.7355  138.8818  163.1902 H       1  UNL1        0.1971
@<TRIPOS>BOND
     1    17    16    1
     2    17    18    1
     3    18    19    1
     4    19    20    1
     5    20    21    1
     6    21    22    1
     7    22     1    1
     8     1     2   ar
     9     2     3   ar
    10     3    23    1
    11    23    26    1
    12    26    27    1
    13    26    28    2
    14    26    29    2
    15    23    24    1
    16    24    25    1
    17     3     4   ar
    18     4     5   ar
    19     5     7    1
    20     7     8    2
    21     8     9    1
    22     9    10    2
    23    10    11    1
    24    11    12    2
    25    12    13    1
    26    13    14    2
    27    14    15    1
    28     5     6   ar
    29    22    17    1
    30     6     1   ar
    31    25    23    1
    32    15     7    1
    33    15    11    1
    34    28    30    1
@<TRIPOS>MOLECULE
*****
 30 34 0 0 0
SMALL
GASTEIGER

@<TRIPOS>ATOM
      1 C         142.0907  141.7202  164.7324 C.ar    1  UNL1        0.1346
      2 C         141.0867  140.8439  164.0438 C.ar    1  UNL1        0.0500
      3 C         140.3086  139.8322  164.8320 C.ar    1  UNL1        0.0752
      4 N         140.5344  139.6969  166.3086 N.ar    1  UNL1       -0.2302
      5 C         141.5384  140.5733  166.9972 C.ar    1  UNL1        0.1603
      6 N         142.3165  141.5849  166.2091 N.ar    1  UNL1       -0.2122
      7 C         141.7642  140.4380  168.4740 C.2     1  UNL1        0.0332
      8 C         142.6500  139.3480  169.0005 C.2     1  UNL1        0.0501
      9 C         142.8759  139.2126  170.4771 C.2     1  UNL1        0.2355
     10 N         142.2158  140.1673  171.4274 N.2     1  UNL1       -0.0341
     11 C         141.3300  141.2573  170.9009 C.2     1  UNL1        0.3594
     12 N         140.5510  142.3382  171.5900 N.2     1  UNL1       -0.0344
     13 C         139.8438  143.1416  170.5391 C.2     1  UNL1        0.2320
     14 C         140.1856  142.5572  169.2006 C.2     1  UNL1        0.0409
     15 C         141.1042  141.3927  169.4242 C.3     1  UNL1        0.1630
     16 C         144.2622  140.8214  162.8677 C.3     1  UNL1        0.0241
     17 C         143.9545  142.2824  163.0119 C.3     1  UNL1        0.1038
     18 C         144.7326  143.2940  162.2238 C.3     1  UNL1        0.1618
     19 O         144.4250  144.7550  162.3680 O.3     1  UNL1       -0.3502
     20 C         143.3393  145.2045  163.3003 C.3     1  UNL1        0.1636
     21 C         142.5611  144.1929  164.0885 C.3     1  UNL1        0.1242
     22 N         142.8688  142.7318  163.9443 N.pl3   1  UNL1       -0.2897
     23 C         139.3047  138.9559  164.1434 C.3     1  UNL1        0.1119
     24 C         138.6260  137.7169  163.6391 C.3     1  UNL1        0.0204
     25 C         139.8927  137.6071  164.4351 C.3     1  UNL1        0.0204
     26 S         138.3681  140.0004  163.6124 S.3     1  UNL1        0.0687
     27 C         137.4315  141.0448  163.0815 C.3     1  UNL1        0.1170
     28 N         137.9392  140.3273  165.0122 N.2     1  UNL1       -0.2504
     29 O         138.7969  139.6734  162.2127 O.2     1  UNL1       -0.2461
     30 H         138.3309  139.8409  165.7733 H       1  UNL1        0.1971
@<TRIPOS>BOND
     1    17    16    1
     2    17    18    1
     3    18    19    1
     4    19    20    1
     5    20    21    1
     6    21    22    1
     7    22     1    1
     8     1     2   ar
     9     2     3   ar
    10     3    23    1
    11    23    26    1
    12    26    27    1
    13    26    28    2
    14    26    29    2
    15    23    24    1
    16    24    25    1
    17     3     4   ar
    18     4     5   ar
    19     5     7    1
    20     7     8    2
    21     8     9    1
    22     9    10    2
    23    10    11    1
    24    11    12    2
    25    12    13    1
    26    13    14    2
    27    14    15    1
    28     5     6   ar
    29    22    17    1
    30     6     1   ar
    31    25    23    1
    32    15     7    1
    33    15    11    1
    34    28    30    1
@<TRIPOS>MOLECULE
*****
 30 34 0 0 0
SMALL
GASTEIGER

@<TRIPOS>ATOM
      1 C         141.7307  140.9247  163.7650 C.ar    1  UNL1        0.1346
      2 C         140.6520  141.8524  163.2900 C.ar    1  UNL1        0.0500
      3 C         139.9615  142.7607  164.2639 C.ar    1  UNL1        0.0752
      4 N         140.3498  142.7412  165.7126 N.ar    1  UNL1       -0.2302
      5 C         141.4287  141.8134  166.1875 C.ar    1  UNL1        0.1603
      6 N         142.1191  140.9051  165.2137 N.ar    1  UNL1       -0.2122
      7 C         141.8170  141.7939  167.6363 C.2     1  UNL1        0.0332
      8 C         143.1522  142.3286  168.0621 C.2     1  UNL1        0.0501
      9 C         143.5405  142.3091  169.5108 C.2     1  UNL1        0.2355
     10 N         142.5936  141.7550  170.5338 N.2     1  UNL1       -0.0341
     11 C         141.2584  141.2203  170.1079 C.2     1  UNL1        0.3594
     12 N         140.1254  140.6164  170.8835 N.2     1  UNL1       -0.0344
     13 C         139.0368  140.2626  169.9140 C.2     1  UNL1        0.2320
     14 C         139.4970  140.6479  168.5393 C.2     1  UNL1        0.0409
     15 C         140.8701  141.2397  168.6592 C.3     1  UNL1        0.1630
     16 C         140.8449  138.0719  163.4871 C.3     1  UNL1        0.0241
     17 C         141.9783  138.5900  162.6522 C.3     1  UNL1        0.1038
     18 C         142.6687  137.6818  161.6784 C.3     1  UNL1        0.1618
     19 O         143.8021  138.1999  160.8435 O.3     1  UNL1       -0.3502
     20 C         144.2450  139.6262  160.9823 C.3     1  UNL1        0.1636
     21 C         143.5546  140.5346  161.9562 C.3     1  UNL1        0.1242
     22 N         142.4212  140.0164  162.7911 N.pl3   1  UNL1       -0.2897
     23 C         138.8828  143.6884  163.7890 C.3     1  UNL1        0.1119
     24 C         137.5241  144.3014  163.6206 C.3     1  UNL1        0.0204
     25 C         137.7022  143.1043  164.5068 C.3     1  UNL1        0.0204
     26 S         139.6887  144.5947  162.9063 S.3     1  UNL1        0.0687
     27 C         140.4945  145.5010  162.0236 C.3     1  UNL1        0.1170
     28 N         140.3808  145.1549  164.1134 N.2     1  UNL1       -0.2504
     29 O         138.9965  144.0345  161.6992 O.2     1  UNL1       -0.2461
     30 H         140.1499  144.8236  165.0113 H       1  UNL1        0.1971
@<TRIPOS>BOND
     1    17    16    1
     2    17    18    1
     3    18    19    1
     4    19    20    1
     5    20    21    1
     6    21    22    1
     7    22     1    1
     8     1     2   ar
     9     2     3   ar
    10     3    23    1
    11    23    26    1
    12    26    27    1
    13    26    28    2
    14    26    29    2
    15    23    24    1
    16    24    25    1
    17     3     4   ar
    18     4     5   ar
    19     5     7    1
    20     7     8    2
    21     8     9    1
    22     9    10    2
    23    10    11    1
    24    11    12    2
    25    12    13    1
    26    13    14    2
    27    14    15    1
    28     5     6   ar
    29    22    17    1
    30     6     1   ar
    31    25    23    1
    32    15     7    1
    33    15    11    1
    34    28    30    1
@<TRIPOS>MOLECULE
*****
 30 34 0 0 0
SMALL
GASTEIGER

@<TRIPOS>ATOM
      1 C         140.6575  142.4763  164.4972 C.ar    1  UNL1        0.1346
      2 C         141.6694  141.5589  163.8772 C.ar    1  UNL1        0.0500
      3 C         142.3082  140.4805  164.7013 C.ar    1  UNL1        0.0752
      4 N         141.9352  140.3196  166.1452 N.ar    1  UNL1       -0.2302
      5 C         140.9232  141.2371  166.7651 C.ar    1  UNL1        0.1603
      6 N         140.2844  142.3155  165.9411 N.ar    1  UNL1       -0.2122
      7 C         140.5502  141.0762  168.2091 C.2     1  UNL1        0.0332
      8 C         139.3793  140.2197  168.5902 C.2     1  UNL1        0.0501
      9 C         139.0062  140.0588  170.0341 C.2     1  UNL1        0.2355
     10 N         139.8041  140.7544  171.0970 N.2     1  UNL1       -0.0341
     11 C         140.9750  141.6109  170.7158 C.2     1  UNL1        0.3594
     12 N         141.9408  142.4135  171.5363 N.2     1  UNL1       -0.0344
     13 C         142.9107  143.0704  170.5994 C.2     1  UNL1        0.2320
     14 C         142.5444  142.6738  169.1999 C.2     1  UNL1        0.0409
     15 C         141.3481  141.7718  169.2718 C.3     1  UNL1        0.1630
     16 C         142.2413  144.8994  163.7096 C.3     1  UNL1        0.0241
     17 C         140.8105  144.7662  163.2794 C.3     1  UNL1        0.1038
     18 C         140.1717  145.8446  162.4554 C.3     1  UNL1        0.1618
     19 O         138.7409  145.7114  162.0251 O.3     1  UNL1       -0.3502
     20 C         137.9489  144.5000  162.4188 C.3     1  UNL1        0.1636
     21 C         138.5877  143.4215  163.2429 C.3     1  UNL1        0.1242
     22 N         140.0186  143.5547  163.6732 N.pl3   1  UNL1       -0.2897
     23 C         143.3201  139.5631  164.0814 C.3     1  UNL1        0.1119
     24 C         144.6494  138.9767  163.7083 C.3     1  UNL1        0.0204
     25 C         144.5855  140.1979  164.5771 C.3     1  UNL1        0.0204
     26 S         142.4061  138.6096  163.3703 S.3     1  UNL1        0.0687
     27 C         141.4921  137.6563  162.6593 C.3     1  UNL1        0.1170
     28 N         142.0855  137.9435  164.6755 N.2     1  UNL1       -0.2504
     29 O         142.7267  139.2757  162.0651 O.2     1  UNL1       -0.2461
     30 H         142.4998  138.2669  165.5080 H       1  UNL1        0.1971
@<TRIPOS>BOND
     1    17    16    1
     2    17    18    1
     3    18    19    1
     4    19    20    1
     5    20    21    1
     6    21    22    1
     7    22     1    1
     8     1     2   ar
     9     2     3   ar
    10     3    23    1
    11    23    26    1
    12    26    27    1
    13    26    28    2
    14    26    29    2
    15    23    24    1
    16    24    25    1
    17     3     4   ar
    18     4     5   ar
    19     5     7    1
    20     7     8    2
    21     8     9    1
    22     9    10    2
    23    10    11    1
    24    11    12    2
    25    12    13    1
    26    13    14    2
    27    14    15    1
    28     5     6   ar
    29    22    17    1
    30     6     1   ar
    31    25    23    1
    32    15     7    1
    33    15    11    1
    34    28    30    1
@<TRIPOS>MOLECULE
*****
 30 34 0 0 0
SMALL
GASTEIGER

@<TRIPOS>ATOM
      1 C         141.8019  141.8655  167.2634 C.ar    1  UNL1        0.1346
      2 C         142.9038  141.1004  166.5923 C.ar    1  UNL1        0.0500
      3 C         142.9925  141.0710  165.0952 C.ar    1  UNL1        0.0752
      4 N         141.9794  141.8067  164.2693 N.ar    1  UNL1       -0.2302
      5 C         140.8774  142.5718  164.9405 C.ar    1  UNL1        0.1603
      6 N         140.7887  142.6012  166.4375 N.ar    1  UNL1       -0.2122
      7 C         139.8642  143.3075  164.1145 C.2     1  UNL1        0.0332
      8 C         138.4363  143.3795  164.5682 C.2     1  UNL1        0.0501
      9 C         137.4231  144.1151  163.7423 C.2     1  UNL1        0.2355
     10 N         137.8378  144.7789  162.4626 N.2     1  UNL1       -0.0341
     11 C         139.2657  144.7069  162.0089 C.2     1  UNL1        0.3594
     12 N         139.9644  145.2591  160.8019 N.2     1  UNL1       -0.0344
     13 C         141.4094  144.8648  160.8819 C.2     1  UNL1        0.2320
     14 C         141.6038  144.0688  162.1383 C.2     1  UNL1        0.0409
     15 C         140.2789  143.9712  162.8349 C.3     1  UNL1        0.1630
     16 C         139.8021  140.1366  168.6819 C.3     1  UNL1        0.0241
     17 C         140.7133  141.0305  169.4697 C.3     1  UNL1        0.1038
     18 C         140.6246  141.0599  170.9668 C.3     1  UNL1        0.1618
     19 O         141.5358  141.9537  171.7547 O.3     1  UNL1       -0.3502
     20 C         142.5357  142.8182  171.0456 C.3     1  UNL1        0.1636
     21 C         142.6245  142.7888  169.5485 C.3     1  UNL1        0.1242
     22 N         141.7132  141.8949  168.7605 N.pl3   1  UNL1       -0.2897
     23 C         144.0944  140.3059  164.4241 C.3     1  UNL1        0.1119
     24 C         145.0514  139.1935  164.1131 C.3     1  UNL1        0.0204
     25 C         144.0597  139.0400  165.2280 C.3     1  UNL1        0.0204
     26 S         144.5118  141.3062  163.3871 S.3     1  UNL1        0.0687
     27 C         144.9293  142.3064  162.3502 C.3     1  UNL1        0.1170
     28 N         143.7471  140.5450  162.3450 N.2     1  UNL1       -0.2504
     29 O         145.2765  142.0674  164.4291 O.2     1  UNL1       -0.2461
     30 H         143.2589  139.7266  162.5925 H       1  UNL1        0.1971
@<TRIPOS>BOND
     1    17    16    1
     2    17    18    1
     3    18    19    1
     4    19    20    1
     5    20    21    1
     6    21    22    1
     7    22     1    1
     8     1     2   ar
     9     2     3   ar
    10     3    23    1
    11    23    26    1
    12    26    27    1
    13    26    28    2
    14    26    29    2
    15    23    24    1
    16    24    25    1
    17     3     4   ar
    18     4     5   ar
    19     5     7    1
    20     7     8    2
    21     8     9    1
    22     9    10    2
    23    10    11    1
    24    11    12    2
    25    12    13    1
    26    13    14    2
    27    14    15    1
    28     5     6   ar
    29    22    17    1
    30     6     1   ar
    31    25    23    1
    32    15     7    1
    33    15    11    1
    34    28    30    1
@<TRIPOS>MOLECULE
*****
 30 34 0 0 0
SMALL
GASTEIGER

@<TRIPOS>ATOM
      1 C         141.8195  140.6694  164.2747 C.ar    1  UNL1        0.1346
      2 C         140.6771  141.5758  163.9234 C.ar    1  UNL1        0.0500
      3 C         139.8363  142.1783  165.0098 C.ar    1  UNL1        0.0752
      4 N         140.1378  141.8743  166.4473 N.ar    1  UNL1       -0.2302
      5 C         141.2802  140.9678  166.7986 C.ar    1  UNL1        0.1603
      6 N         142.1211  140.3654  165.7123 N.ar    1  UNL1       -0.2122
      7 C         141.5818  140.6638  168.2362 C.2     1  UNL1        0.0332
      8 C         142.4460  139.4898  168.5893 C.2     1  UNL1        0.0501
      9 C         142.7475  139.1858  170.0268 C.2     1  UNL1        0.2355
     10 N         142.1848  140.0559  171.1114 N.2     1  UNL1       -0.0341
     11 C         141.3205  141.2299  170.7584 C.2     1  UNL1        0.3594
     12 N         140.6301  142.2584  171.6044 N.2     1  UNL1       -0.0344
     13 C         139.9019  143.1980  170.6896 C.2     1  UNL1        0.2320
     14 C         140.1422  142.7502  169.2783 C.2     1  UNL1        0.0409
     15 C         141.0190  141.5339  169.3208 C.3     1  UNL1        0.1630
     16 C         141.6255  137.7353  163.6805 C.3     1  UNL1        0.0241
     17 C         142.5633  138.5999  162.8913 C.3     1  UNL1        0.1038
     18 C         143.4042  137.9975  161.8050 C.3     1  UNL1        0.1618
     19 O         144.3420  138.8621  161.0158 O.3     1  UNL1       -0.3502
     20 C         144.4391  140.3292  161.3129 C.3     1  UNL1        0.1636
     21 C         143.5982  140.9317  162.3992 C.3     1  UNL1        0.1242
     22 N         142.6603  140.0670  163.1884 N.pl3   1  UNL1       -0.2897
     23 C         138.6940  143.0847  164.6585 C.3     1  UNL1        0.1119
     24 C         137.8148  144.2998  164.6339 C.3     1  UNL1        0.0204
     25 C         139.0553  144.2885  165.4772 C.3     1  UNL1        0.0204
     26 S         137.9359  142.1956  163.7177 S.3     1  UNL1        0.0687
     27 C         137.1779  141.3067  162.7770 C.3     1  UNL1        0.1170
     28 N         137.7287  141.2028  164.8230 N.2     1  UNL1       -0.2504
     29 O         138.1431  143.1884  162.6125 O.2     1  UNL1       -0.2461
     30 H         138.0915  141.3824  165.7204 H       1  UNL1        0.1971
@<TRIPOS>BOND
     1    17    16    1
     2    17    18    1
     3    18    19    1
     4    19    20    1
     5    20    21    1
     6    21    22    1
     7    22     1    1
     8     1     2   ar
     9     2     3   ar
    10     3    23    1
    11    23    26    1
    12    26    27    1
    13    26    28    2
    14    26    29    2
    15    23    24    1
    16    24    25    1
    17     3     4   ar
    18     4     5   ar
    19     5     7    1
    20     7     8    2
    21     8     9    1
    22     9    10    2
    23    10    11    1
    24    11    12    2
    25    12    13    1
    26    13    14    2
    27    14    15    1
    28     5     6   ar
    29    22    17    1
    30     6     1   ar
    31    25    23    1
    32    15     7    1
    33    15    11    1
    34    28    30    1
@<TRIPOS>MOLECULE
*****
 30 34 0 0 0
SMALL
GASTEIGER

@<TRIPOS>ATOM
      1 C         141.4571  140.2904  162.7987 C.ar    1  UNL1        0.1346
      2 C         141.4430  141.7640  162.5191 C.ar    1  UNL1        0.0500
      3 C         140.7375  142.6985  163.4567 C.ar    1  UNL1        0.0752
      4 N         140.0462  142.1594  164.6738 N.ar    1  UNL1       -0.2302
      5 C         140.0604  140.6857  164.9534 C.ar    1  UNL1        0.1603
      6 N         140.7658  139.7512  164.0158 N.ar    1  UNL1       -0.2122
      7 C         139.3691  140.1466  166.1705 C.2     1  UNL1        0.0332
      8 C         138.2408  139.1695  166.0212 C.2     1  UNL1        0.0501
      9 C         137.5496  138.6304  167.2383 C.2     1  UNL1        0.2355
     10 N         137.9864  139.0684  168.6049 N.2     1  UNL1       -0.0341
     11 C         139.1147  140.0455  168.7542 C.2     1  UNL1        0.3594
     12 N         139.7604  140.6560  169.9626 N.2     1  UNL1       -0.0344
     13 C         140.8508  141.5724  169.4923 C.2     1  UNL1        0.2320
     14 C         140.8790  141.5283  167.9932 C.2     1  UNL1        0.0409
     15 C         139.8060  140.5846  167.5370 C.3     1  UNL1        0.1630
     16 C         144.1285  139.1486  163.5469 C.3     1  UNL1        0.0241
     17 C         143.4983  138.7850  162.2352 C.3     1  UNL1        0.1038
     18 C         144.2037  137.8504  161.2977 C.3     1  UNL1        0.1618
     19 O         143.5734  137.4868  159.9860 O.3     1  UNL1       -0.3502
     20 C         142.2378  138.0576  159.6118 C.3     1  UNL1        0.1636
     21 C         141.5322  138.9922  160.5494 C.3     1  UNL1        0.1242
     22 N         142.1625  139.3559  161.8611 N.pl3   1  UNL1       -0.2897
     23 C         140.7234  144.1721  163.1771 C.3     1  UNL1        0.1119
     24 C         141.2229  145.5591  162.8995 C.3     1  UNL1        0.0204
     25 C         142.1975  144.4341  163.0858 C.3     1  UNL1        0.0204
     26 S         139.2443  144.4219  163.1712 S.3     1  UNL1        0.0687
     27 C         137.7653  144.6717  163.1654 C.3     1  UNL1        0.1170
     28 N         139.3406  145.0242  164.5417 N.2     1  UNL1       -0.2504
     29 O         139.1480  143.8197  161.8008 O.2     1  UNL1       -0.2461
     30 H         140.2129  145.0798  164.9947 H       1  UNL1        0.1971
@<TRIPOS>BOND
     1    17    16    1
     2    17    18    1
     3    18    19    1
     4    19    20    1
     5    20    21    1
     6    21    22    1
     7    22     1    1
     8     1     2   ar
     9     2     3   ar
    10     3    23    1
    11    23    26    1
    12    26    27    1
    13    26    28    2
    14    26    29    2
    15    23    24    1
    16    24    25    1
    17     3     4   ar
    18     4     5   ar
    19     5     7    1
    20     7     8    2
    21     8     9    1
    22     9    10    2
    23    10    11    1
    24    11    12    2
    25    12    13    1
    26    13    14    2
    27    14    15    1
    28     5     6   ar
    29    22    17    1
    30     6     1   ar
    31    25    23    1
    32    15     7    1
    33    15    11    1
    34    28    30    1
