@<TRIPOS>MOLECULE
*****
 34 38 0 0 0
SMALL
GASTEIGER

@<TRIPOS>ATOM
      1 N         142.5646  138.5419  163.6879 N.3     1  UNL1       -0.2726
      2 C         143.7388  138.7586  162.7800 C.3     1  UNL1        0.0721
      3 C         144.4295  140.0193  163.2086 C.3     1  UNL1        0.0190
      4 C         143.6821  140.5817  164.3812 C.3     1  UNL1        0.0202
      5 C         144.5678  141.7771  164.5730 C.3     1  UNL1        0.0062
      6 C         143.3935  141.5604  165.4808 C.3     1  UNL1        0.0259
      7 C         142.5295  139.6687  164.6775 C.3     1  UNL1        0.0724
      8 C         142.5489  142.0002  166.6397 C.ar    1  UNL1        0.0050
      9 C         143.1491  142.0972  168.0110 C.ar    1  UNL1       -0.0021
     10 C         142.3045  142.5370  169.1700 C.ar    1  UNL1        0.0037
     11 C         140.8598  142.8800  168.9576 C.ar    1  UNL1        0.0736
     12 C         140.2596  142.7830  167.5863 C.ar    1  UNL1        0.0332
     13 C         141.1042  142.3432  166.4274 C.ar    1  UNL1        0.1361
     14 F         140.5041  142.2462  165.0562 F       1  UNL1       -0.2045
     15 C         140.0152  143.3198  170.1166 C.3     1  UNL1        0.4186
     16 F         139.1706  143.7597  171.2756 F       1  UNL1       -0.1659
     17 F         140.5816  144.7042  170.0039 F       1  UNL1       -0.1659
     18 F         139.4488  141.9355  170.2293 F       1  UNL1       -0.1659
     19 C         141.5954  137.3991  163.6183 C.3     1  UNL1        0.0730
     20 C         140.2135  137.5524  164.1811 C.3     1  UNL1        0.0294
     21 C         139.0355  137.6591  163.2585 C.3     1  UNL1        0.0666
     22 S         139.1130  138.5318  162.0410 S.3     1  UNL1       -0.0756
     23 C         138.7647  142.3974  162.0048 C.ar    1  UNL1        0.2029
     24 N         137.4104  141.9889  162.5041 N.ar    1  UNL1       -0.1250
     25 N         137.3761  140.4912  162.5785 N.ar    1  UNL1       -0.1220
     26 C         138.7091  139.9739  162.1251 C.ar    1  UNL1        0.1933
     27 N         139.5673  141.1520  161.7705 N.ar    1  UNL1       -0.2860
     28 C         140.9801  141.0948  161.2697 C.3     1  UNL1        0.1341
     29 C         138.8474  144.7734  164.2403 C.3     1  UNL1        0.0556
     30 C         139.2719  144.8963  162.8069 C.ar    1  UNL1        0.1001
     31 N         139.8089  146.1329  162.1493 N.ar    1  UNL1       -0.2085
     32 C         140.1027  145.8051  160.7154 C.ar    1  UNL1        0.2849
     33 O         139.7473  144.3658  160.4867 O.2     1  UNL1       -0.4283
     34 C         139.2338  143.8042  161.7793 C.ar    1  UNL1        0.1964
@<TRIPOS>BOND
     1    29    30    1
     2    30    31   ar
     3    31    32   ar
     4    32    33   ar
     5    33    34   ar
     6    34    23    1
     7    23    24   ar
     8    24    25   ar
     9    25    26   ar
    10    26    22    1
    11    22    21    1
    12    21    20    1
    13    20    19    1
    14    19     1    1
    15     1     2    1
    16     2     3    1
    17     4     3    1
    18     4     5    1
    19     5     6    1
    20     6     8    1
    21     8     9   ar
    22     9    10   ar
    23    10    11   ar
    24    11    15    1
    25    15    16    1
    26    15    17    1
    27    15    18    1
    28    11    12   ar
    29    12    13   ar
    30    13    14    1
    31     4     7    1
    32    26    27   ar
    33    27    28    1
    34    34    30   ar
    35    27    23   ar
    36     7     1    1
    37     6     4    1
    38    13     8   ar
@<TRIPOS>MOLECULE
*****
 34 38 0 0 0
SMALL
GASTEIGER

@<TRIPOS>ATOM
      1 N         138.2186  140.5078  163.2630 N.3     1  UNL1       -0.2726
      2 C         138.0875  139.1496  162.6400 C.3     1  UNL1        0.0721
      3 C         138.9469  138.1979  163.4182 C.3     1  UNL1        0.0190
      4 C         139.6091  138.9679  164.5222 C.3     1  UNL1        0.0202
      5 C         140.3630  137.8043  165.0946 C.3     1  UNL1        0.0062
      6 C         140.4940  139.1625  165.7176 C.3     1  UNL1        0.0259
      7 C         139.1589  140.3955  164.4262 C.3     1  UNL1        0.0724
      8 C         141.0806  140.0590  166.7674 C.ar    1  UNL1        0.0050
      9 C         142.4081  140.7175  166.5350 C.ar    1  UNL1       -0.0021
     10 C         142.9947  141.6141  167.5848 C.ar    1  UNL1        0.0037
     11 C         142.2537  141.8521  168.8671 C.ar    1  UNL1        0.0736
     12 C         140.9261  141.1936  169.0995 C.ar    1  UNL1        0.0332
     13 C         140.3396  140.2970  168.0497 C.ar    1  UNL1        0.1361
     14 F         139.0121  139.6386  168.2821 F       1  UNL1       -0.2045
     15 C         142.8402  142.7486  169.9169 C.3     1  UNL1        0.4186
     16 F         143.4268  143.6452  170.9668 F       1  UNL1       -0.1659
     17 F         144.0869  141.9146  169.9326 F       1  UNL1       -0.1659
     18 F         141.5936  143.5826  169.9012 F       1  UNL1       -0.1659
     19 C         137.5301  141.7587  162.8034 C.3     1  UNL1        0.0730
     20 C         137.7140  143.0386  163.5637 C.3     1  UNL1        0.0294
     21 C         137.7875  144.3440  162.8284 C.3     1  UNL1        0.0666
     22 S         139.0965  145.0672  162.7133 S.3     1  UNL1       -0.0756
     23 C         142.3765  143.0311  162.3108 C.ar    1  UNL1        0.2029
     24 N         142.0564  143.3509  160.8806 N.ar    1  UNL1       -0.1250
     25 N         140.7888  144.1525  160.8573 N.ar    1  UNL1       -0.1220
     26 C         140.3254  144.3282  162.2731 C.ar    1  UNL1        0.1933
     27 N         141.3066  143.6352  163.1714 N.ar    1  UNL1       -0.2860
     28 C         141.2312  143.5595  164.6676 C.3     1  UNL1        0.1341
     29 C         142.5318  139.7848  162.6052 C.3     1  UNL1        0.0556
     30 C         143.6302  140.7531  162.9306 C.ar    1  UNL1        0.1001
     31 N         144.9927  140.3994  163.4485 N.ar    1  UNL1       -0.2085
     32 C         145.7635  141.6729  163.6333 C.ar    1  UNL1        0.2849
     33 O         144.8772  142.8138  163.2296 O.2     1  UNL1       -0.4283
     34 C         143.5588  142.2453  162.7953 C.ar    1  UNL1        0.1964
@<TRIPOS>BOND
     1    29    30    1
     2    30    31   ar
     3    31    32   ar
     4    32    33   ar
     5    33    34   ar
     6    34    23    1
     7    23    24   ar
     8    24    25   ar
     9    25    26   ar
    10    26    22    1
    11    22    21    1
    12    21    20    1
    13    20    19    1
    14    19     1    1
    15     1     2    1
    16     2     3    1
    17     4     3    1
    18     4     5    1
    19     5     6    1
    20     6     8    1
    21     8     9   ar
    22     9    10   ar
    23    10    11   ar
    24    11    15    1
    25    15    16    1
    26    15    17    1
    27    15    18    1
    28    11    12   ar
    29    12    13   ar
    30    13    14    1
    31     4     7    1
    32    26    27   ar
    33    27    28    1
    34    34    30   ar
    35    27    23   ar
    36     7     1    1
    37     6     4    1
    38    13     8   ar
@<TRIPOS>MOLECULE
*****
 34 38 0 0 0
SMALL
GASTEIGER

@<TRIPOS>ATOM
      1 N         138.2587  140.1825  162.7700 N.3     1  UNL1       -0.2726
      2 C         138.0869  138.8426  162.1179 C.3     1  UNL1        0.0721
      3 C         138.7649  137.8180  162.9785 C.3     1  UNL1        0.0190
      4 C         139.3557  138.5247  164.1624 C.3     1  UNL1        0.0202
      5 C         139.9355  137.2988  164.8035 C.3     1  UNL1        0.0062
      6 C         140.1072  138.6386  165.4556 C.3     1  UNL1        0.0259
      7 C         139.0428  139.9860  164.0336 C.3     1  UNL1        0.0724
      8 C         140.6403  139.4780  166.5786 C.ar    1  UNL1        0.0050
      9 C         139.6959  140.2503  167.4515 C.ar    1  UNL1       -0.0021
     10 C         140.2289  141.0896  168.5745 C.ar    1  UNL1        0.0037
     11 C         141.7064  141.1568  168.8247 C.ar    1  UNL1        0.0736
     12 C         142.6508  140.3846  167.9519 C.ar    1  UNL1        0.0332
     13 C         142.1177  139.5452  166.8288 C.ar    1  UNL1        0.1361
     14 F         143.0621  138.7730  165.9561 F       1  UNL1       -0.2045
     15 C         142.2394  141.9962  169.9478 C.3     1  UNL1        0.4186
     16 F         142.7725  142.8357  171.0708 F       1  UNL1       -0.1659
     17 F         142.7862  140.7654  170.6082 F       1  UNL1       -0.1659
     18 F         141.6927  143.2270  169.2873 F       1  UNL1       -0.1659
     19 C         137.7378  141.4894  162.2499 C.3     1  UNL1        0.0730
     20 C         137.4828  142.6251  163.1960 C.3     1  UNL1        0.0294
     21 C         137.8166  144.0298  162.7891 C.3     1  UNL1        0.0666
     22 S         138.9325  144.7633  163.4723 S.3     1  UNL1       -0.0756
     23 C         142.1576  142.7673  164.2968 C.ar    1  UNL1        0.2029
     24 N         141.5329  142.8830  165.6557 N.ar    1  UNL1       -0.1250
     25 N         140.2488  143.6448  165.5122 N.ar    1  UNL1       -0.1220
     26 C         140.0798  143.9999  164.0647 C.ar    1  UNL1        0.1933
     27 N         141.2595  143.4576  163.3135 N.ar    1  UNL1       -0.2860
     28 C         141.4990  143.5835  161.8381 C.3     1  UNL1        0.1341
     29 C         142.4849  139.8887  162.7947 C.3     1  UNL1        0.0556
     30 C         143.6034  140.7586  163.2870 C.ar    1  UNL1        0.1001
     31 N         145.0687  140.4580  163.1752 N.ar    1  UNL1       -0.2085
     32 C         145.8239  141.5954  163.7966 C.ar    1  UNL1        0.2849
     33 O         144.8253  142.5989  164.2924 O.2     1  UNL1       -0.4283
     34 C         143.4530  142.0817  163.9774 C.ar    1  UNL1        0.1964
@<TRIPOS>BOND
     1    29    30    1
     2    30    31   ar
     3    31    32   ar
     4    32    33   ar
     5    33    34   ar
     6    34    23    1
     7    23    24   ar
     8    24    25   ar
     9    25    26   ar
    10    26    22    1
    11    22    21    1
    12    21    20    1
    13    20    19    1
    14    19     1    1
    15     1     2    1
    16     2     3    1
    17     4     3    1
    18     4     5    1
    19     5     6    1
    20     6     8    1
    21     8     9   ar
    22     9    10   ar
    23    10    11   ar
    24    11    15    1
    25    15    16    1
    26    15    17    1
    27    15    18    1
    28    11    12   ar
    29    12    13   ar
    30    13    14    1
    31     4     7    1
    32    26    27   ar
    33    27    28    1
    34    34    30   ar
    35    27    23   ar
    36     7     1    1
    37     6     4    1
    38    13     8   ar
@<TRIPOS>MOLECULE
*****
 34 38 0 0 0
SMALL
GASTEIGER

@<TRIPOS>ATOM
      1 N         140.8564  144.5429  162.6160 N.3     1  UNL1       -0.2726
      2 C         139.5751  145.0701  162.0414 C.3     1  UNL1        0.0721
      3 C         138.4416  144.5241  162.8582 C.3     1  UNL1        0.0190
      4 C         139.0224  143.6594  163.9375 C.3     1  UNL1        0.0202
      5 C         137.7102  143.2775  164.5557 C.3     1  UNL1        0.0062
      6 C         138.9915  142.7503  165.1303 C.3     1  UNL1        0.0259
      7 C         140.5149  143.6710  163.7879 C.3     1  UNL1        0.0724
      8 C         139.7135  141.9210  166.1506 C.ar    1  UNL1        0.0050
      9 C         140.8926  142.4909  166.8821 C.ar    1  UNL1       -0.0021
     10 C         141.6145  141.6617  167.9024 C.ar    1  UNL1        0.0037
     11 C         141.1574  140.2625  168.1912 C.ar    1  UNL1        0.0736
     12 C         139.9784  139.6926  167.4597 C.ar    1  UNL1        0.0332
     13 C         139.2564  140.5219  166.4394 C.ar    1  UNL1        0.1361
     14 F         138.0774  139.9520  165.7079 F       1  UNL1       -0.2045
     15 C         141.8794  139.4333  169.2115 C.3     1  UNL1        0.4186
     16 F         142.6014  138.6039  170.2319 F       1  UNL1       -0.1659
     17 F         143.0518  139.3124  168.2837 F       1  UNL1       -0.1659
     18 F         140.7070  139.5541  170.1393 F       1  UNL1       -0.1659
     19 C         142.2370  144.8360  162.1079 C.3     1  UNL1        0.0730
     20 C         143.4350  144.4217  162.9099 C.3     1  UNL1        0.0294
     21 C         144.5644  143.6897  162.2476 C.3     1  UNL1        0.0666
     22 S         144.8674  142.2720  162.6325 S.3     1  UNL1       -0.0756
     23 C         141.7672  140.1069  163.5079 C.ar    1  UNL1        0.2029
     24 N         142.5208  140.0717  164.8044 N.ar    1  UNL1       -0.1250
     25 N         143.7739  140.8785  164.6343 N.ar    1  UNL1       -0.1220
     26 C         143.7947  141.4123  163.2326 C.ar    1  UNL1        0.1933
     27 N         142.5545  140.9355  162.5365 N.ar    1  UNL1       -0.2860
     28 C         142.1693  141.2346  161.1180 C.3     1  UNL1        0.1341
     29 C         141.0663  136.9710  164.0780 C.3     1  UNL1        0.0556
     30 C         140.1342  137.9907  163.4934 C.ar    1  UNL1        0.1001
     31 N         138.7164  137.7479  163.0683 N.ar    1  UNL1       -0.2085
     32 C         138.1623  139.0393  162.5435 C.ar    1  UNL1        0.2849
     33 O         139.2377  140.0801  162.6443 O.2     1  UNL1       -0.4283
     34 C         140.4564  139.4320  163.2314 C.ar    1  UNL1        0.1964
@<TRIPOS>BOND
     1    29    30    1
     2    30    31   ar
     3    31    32   ar
     4    32    33   ar
     5    33    34   ar
     6    34    23    1
     7    23    24   ar
     8    24    25   ar
     9    25    26   ar
    10    26    22    1
    11    22    21    1
    12    21    20    1
    13    20    19    1
    14    19     1    1
    15     1     2    1
    16     2     3    1
    17     4     3    1
    18     4     5    1
    19     5     6    1
    20     6     8    1
    21     8     9   ar
    22     9    10   ar
    23    10    11   ar
    24    11    15    1
    25    15    16    1
    26    15    17    1
    27    15    18    1
    28    11    12   ar
    29    12    13   ar
    30    13    14    1
    31     4     7    1
    32    26    27   ar
    33    27    28    1
    34    34    30   ar
    35    27    23   ar
    36     7     1    1
    37     6     4    1
    38    13     8   ar
@<TRIPOS>MOLECULE
*****
 34 38 0 0 0
SMALL
GASTEIGER

@<TRIPOS>ATOM
      1 N         143.8735  143.1312  163.3673 N.3     1  UNL1       -0.2726
      2 C         143.7853  144.6078  163.1188 C.3     1  UNL1        0.0721
      3 C         142.4201  145.0674  163.5369 C.3     1  UNL1        0.0190
      4 C         141.6645  143.8749  164.0438 C.3     1  UNL1        0.0202
      5 C         140.4020  144.6162  164.3701 C.3     1  UNL1        0.0062
      6 C         140.4902  143.1396  164.6186 C.3     1  UNL1        0.0259
      7 C         142.5628  142.6782  163.9389 C.3     1  UNL1        0.0724
      8 C         139.8632  141.8625  165.0939 C.ar    1  UNL1        0.0050
      9 C         139.0261  141.0437  164.1565 C.ar    1  UNL1       -0.0021
     10 C         138.3991  139.7666  164.6318 C.ar    1  UNL1        0.0037
     11 C         138.6091  139.3084  166.0445 C.ar    1  UNL1        0.0736
     12 C         139.4462  140.1273  166.9820 C.ar    1  UNL1        0.0332
     13 C         140.0732  141.4043  166.5067 C.ar    1  UNL1        0.1361
     14 F         140.9103  142.2231  167.4441 F       1  UNL1       -0.2045
     15 C         137.9821  138.0314  166.5199 C.3     1  UNL1        0.4186
     16 F         137.3550  136.7542  166.9952 F       1  UNL1       -0.1659
     17 F         138.6721  137.2826  165.4184 F       1  UNL1       -0.1659
     18 F         137.2921  138.7801  167.6213 F       1  UNL1       -0.1659
     19 C         145.0635  142.2604  163.0924 C.3     1  UNL1        0.0730
     20 C         145.4075  141.1422  164.0311 C.3     1  UNL1        0.0294
     21 C         144.4670  139.9854  164.1963 C.3     1  UNL1        0.0666
     22 S         144.2490  139.0281  163.0623 S.3     1  UNL1       -0.0756
     23 C         140.7461  138.8336  161.4018 C.ar    1  UNL1        0.2029
     24 N         140.6813  137.6746  162.3518 N.ar    1  UNL1       -0.1250
     25 N         141.9856  137.6064  163.0895 N.ar    1  UNL1       -0.1220
     26 C         142.8565  138.7232  162.5953 C.ar    1  UNL1        0.1933
     27 N         142.0905  139.4817  161.5523 N.ar    1  UNL1       -0.2860
     28 C         142.5824  140.6782  160.7931 C.3     1  UNL1        0.1341
     29 C         140.8254  138.6380  158.1452 C.3     1  UNL1        0.0556
     30 C         139.6940  139.1783  158.9688 C.ar    1  UNL1        0.1001
     31 N         138.4005  139.7235  158.4401 N.ar    1  UNL1       -0.2085
     32 C         137.5646  140.1503  159.6102 C.ar    1  UNL1        0.2849
     33 O         138.3415  139.8689  160.8621 O.2     1  UNL1       -0.4283
     34 C         139.6576  139.2682  160.4656 C.ar    1  UNL1        0.1964
@<TRIPOS>BOND
     1    29    30    1
     2    30    31   ar
     3    31    32   ar
     4    32    33   ar
     5    33    34   ar
     6    34    23    1
     7    23    24   ar
     8    24    25   ar
     9    25    26   ar
    10    26    22    1
    11    22    21    1
    12    21    20    1
    13    20    19    1
    14    19     1    1
    15     1     2    1
    16     2     3    1
    17     4     3    1
    18     4     5    1
    19     5     6    1
    20     6     8    1
    21     8     9   ar
    22     9    10   ar
    23    10    11   ar
    24    11    15    1
    25    15    16    1
    26    15    17    1
    27    15    18    1
    28    11    12   ar
    29    12    13   ar
    30    13    14    1
    31     4     7    1
    32    26    27   ar
    33    27    28    1
    34    34    30   ar
    35    27    23   ar
    36     7     1    1
    37     6     4    1
    38    13     8   ar
@<TRIPOS>MOLECULE
*****
 34 38 0 0 0
SMALL
GASTEIGER

@<TRIPOS>ATOM
      1 N         142.1001  143.0635  161.2273 N.3     1  UNL1       -0.2726
      2 C         143.3698  143.2120  160.4427 C.3     1  UNL1        0.0721
      3 C         144.5001  142.7085  161.2905 C.3     1  UNL1        0.0190
      4 C         143.9290  142.2488  162.5991 C.3     1  UNL1        0.0202
      5 C         145.2358  141.8228  163.1996 C.3     1  UNL1        0.0062
      6 C         143.9661  141.6743  163.9843 C.3     1  UNL1        0.0259
      7 C         142.4456  142.4682  162.5601 C.3     1  UNL1        0.0724
      8 C         143.2544  141.2568  165.2369 C.ar    1  UNL1        0.0050
      9 C         143.3291  142.1164  166.4639 C.ar    1  UNL1       -0.0021
     10 C         142.6174  141.6989  167.7166 C.ar    1  UNL1        0.0037
     11 C         141.8310  140.4219  167.7423 C.ar    1  UNL1        0.0736
     12 C         141.7563  139.5623  166.5153 C.ar    1  UNL1        0.0332
     13 C         142.4680  139.9797  165.2626 C.ar    1  UNL1        0.1361
     14 F         142.3933  139.1202  164.0357 F       1  UNL1       -0.2045
     15 C         141.1193  140.0044  168.9949 C.3     1  UNL1        0.4186
     16 F         140.4076  139.5870  170.2477 F       1  UNL1       -0.1659
     17 F         142.4376  139.6997  169.6424 F       1  UNL1       -0.1659
     18 F         139.8010  140.3092  168.3475 F       1  UNL1       -0.1659
     19 C         140.7260  143.4435  160.7611 C.3     1  UNL1        0.0730
     20 C         140.1805  144.8069  161.0670 C.3     1  UNL1        0.0294
     21 C         140.0148  145.2462  162.4917 C.3     1  UNL1        0.0666
     22 S         138.8016  144.8290  163.2688 S.3     1  UNL1       -0.0756
     23 C         138.1297  141.0614  163.9163 C.ar    1  UNL1        0.2029
     24 N         137.3139  141.2929  162.6790 N.ar    1  UNL1       -0.1250
     25 N         137.4663  142.7324  162.2858 N.ar    1  UNL1       -0.1220
     26 C         138.3763  143.3906  163.2802 C.ar    1  UNL1        0.1933
     27 N         138.7863  142.3579  164.2879 N.ar    1  UNL1       -0.2860
     28 C         139.6936  142.5823  165.4611 C.3     1  UNL1        0.1341
     29 C         139.4141  138.3074  162.7266 C.3     1  UNL1        0.0556
     30 C         138.8555  138.4958  164.1059 C.ar    1  UNL1        0.1001
     31 N         138.7891  137.4514  165.1805 N.ar    1  UNL1       -0.2085
     32 C         138.1578  138.0718  166.3915 C.ar    1  UNL1        0.2849
     33 O         137.8339  139.4996  166.0653 O.2     1  UNL1       -0.4283
     34 C         138.2651  139.7616  164.6527 C.ar    1  UNL1        0.1964
@<TRIPOS>BOND
     1    29    30    1
     2    30    31   ar
     3    31    32   ar
     4    32    33   ar
     5    33    34   ar
     6    34    23    1
     7    23    24   ar
     8    24    25   ar
     9    25    26   ar
    10    26    22    1
    11    22    21    1
    12    21    20    1
    13    20    19    1
    14    19     1    1
    15     1     2    1
    16     2     3    1
    17     4     3    1
    18     4     5    1
    19     5     6    1
    20     6     8    1
    21     8     9   ar
    22     9    10   ar
    23    10    11   ar
    24    11    15    1
    25    15    16    1
    26    15    17    1
    27    15    18    1
    28    11    12   ar
    29    12    13   ar
    30    13    14    1
    31     4     7    1
    32    26    27   ar
    33    27    28    1
    34    34    30   ar
    35    27    23   ar
    36     7     1    1
    37     6     4    1
    38    13     8   ar
@<TRIPOS>MOLECULE
*****
 34 38 0 0 0
SMALL
GASTEIGER

@<TRIPOS>ATOM
      1 N         141.5707  138.4838  163.1317 N.3     1  UNL1       -0.2726
      2 C         140.3436  137.7073  162.7558 C.3     1  UNL1        0.0721
      3 C         139.3436  137.8560  163.8639 C.3     1  UNL1        0.0190
      4 C         139.9526  138.7244  164.9245 C.3     1  UNL1        0.0202
      5 C         138.7737  138.6901  165.8513 C.3     1  UNL1        0.0062
      6 C         140.0007  139.4666  166.2272 C.3     1  UNL1        0.0259
      7 C         141.3290  139.1125  164.4720 C.3     1  UNL1        0.0724
      8 C         140.7370  140.3434  167.1963 C.ar    1  UNL1        0.0050
      9 C         140.1428  141.6525  167.6242 C.ar    1  UNL1       -0.0021
     10 C         140.8790  142.5293  168.5933 C.ar    1  UNL1        0.0037
     11 C         142.2095  142.0970  169.1344 C.ar    1  UNL1        0.0736
     12 C         142.8038  140.7879  168.7064 C.ar    1  UNL1        0.0332
     13 C         142.0675  139.9111  167.7374 C.ar    1  UNL1        0.1361
     14 F         142.6617  138.6020  167.3094 F       1  UNL1       -0.2045
     15 C         142.9458  142.9738  170.1034 C.3     1  UNL1        0.4186
     16 F         143.6822  143.8506  171.0726 F       1  UNL1       -0.1659
     17 F         141.7564  143.8842  170.1833 F       1  UNL1       -0.1659
     18 F         144.1352  142.0633  170.0235 F       1  UNL1       -0.1659
     19 C         142.8201  138.6097  162.3113 C.3     1  UNL1        0.0730
     20 C         144.0564  139.2077  162.9145 C.3     1  UNL1        0.0294
     21 C         144.7844  140.3065  162.1985 C.3     1  UNL1        0.0666
     22 S         144.7782  141.6985  162.7572 S.3     1  UNL1       -0.0756
     23 C         141.2615  143.0332  163.7147 C.ar    1  UNL1        0.2029
     24 N         141.9806  143.1437  165.0265 N.ar    1  UNL1       -0.1250
     25 N         143.3855  142.6572  164.8275 N.ar    1  UNL1       -0.1220
     26 C         143.5347  142.2460  163.3927 C.ar    1  UNL1        0.1933
     27 N         142.2220  142.4784  162.7049 N.ar    1  UNL1       -0.2860
     28 C         141.9224  142.2041  161.2610 C.3     1  UNL1        0.1341
     29 C         140.2322  145.7687  162.2631 C.3     1  UNL1        0.0556
     30 C         139.3597  144.6685  162.7906 C.ar    1  UNL1        0.1001
     31 N         137.8609  144.6325  162.7436 N.ar    1  UNL1       -0.2085
     32 C         137.4076  143.3529  163.3817 C.ar    1  UNL1        0.2849
     33 O         138.6263  142.5981  163.8232 O.2     1  UNL1       -0.4283
     34 C         139.8328  143.4112  163.4579 C.ar    1  UNL1        0.1964
@<TRIPOS>BOND
     1    29    30    1
     2    30    31   ar
     3    31    32   ar
     4    32    33   ar
     5    33    34   ar
     6    34    23    1
     7    23    24   ar
     8    24    25   ar
     9    25    26   ar
    10    26    22    1
    11    22    21    1
    12    21    20    1
    13    20    19    1
    14    19     1    1
    15     1     2    1
    16     2     3    1
    17     4     3    1
    18     4     5    1
    19     5     6    1
    20     6     8    1
    21     8     9   ar
    22     9    10   ar
    23    10    11   ar
    24    11    15    1
    25    15    16    1
    26    15    17    1
    27    15    18    1
    28    11    12   ar
    29    12    13   ar
    30    13    14    1
    31     4     7    1
    32    26    27   ar
    33    27    28    1
    34    34    30   ar
    35    27    23   ar
    36     7     1    1
    37     6     4    1
    38    13     8   ar
@<TRIPOS>MOLECULE
*****
 34 38 0 0 0
SMALL
GASTEIGER

@<TRIPOS>ATOM
      1 N         143.4347  142.0223  162.3144 N.3     1  UNL1       -0.2726
      2 C         144.3003  140.9292  161.7614 C.3     1  UNL1        0.0721
      3 C         144.4659  139.8856  162.8261 C.3     1  UNL1        0.0190
      4 C         143.7027  140.3338  164.0372 C.3     1  UNL1        0.0202
      5 C         144.0428  139.1446  164.8858 C.3     1  UNL1        0.0062
      6 C         143.1772  140.2377  165.4388 C.3     1  UNL1        0.0259
      7 C         143.0654  141.6543  163.7209 C.3     1  UNL1        0.0724
      8 C         142.3740  140.8134  166.5673 C.ar    1  UNL1        0.0050
      9 C         141.1400  140.1075  167.0460 C.ar    1  UNL1       -0.0021
     10 C         140.3368  140.6832  168.1745 C.ar    1  UNL1        0.0037
     11 C         140.7676  141.9646  168.8243 C.ar    1  UNL1        0.0736
     12 C         142.0016  142.6705  168.3456 C.ar    1  UNL1        0.0332
     13 C         142.8048  142.0948  167.2171 C.ar    1  UNL1        0.1361
     14 F         144.0387  142.8006  166.7384 F       1  UNL1       -0.2045
     15 C         139.9645  142.5403  169.9528 C.3     1  UNL1        0.4186
     16 F         139.1613  143.1160  171.0814 F       1  UNL1       -0.1659
     17 F         139.1922  141.2586  170.0569 F       1  UNL1       -0.1659
     18 F         140.7368  143.8219  169.8487 F       1  UNL1       -0.1659
     19 C         143.0126  143.2651  161.5885 C.3     1  UNL1        0.0730
     20 C         141.9367  144.1395  162.1613 C.3     1  UNL1        0.0294
     21 C         140.6724  144.3762  161.3896 C.3     1  UNL1        0.0666
     22 S         139.3419  144.1192  162.0327 S.3     1  UNL1       -0.0756
     23 C         138.4807  140.6047  163.4371 C.ar    1  UNL1        0.2029
     24 N         137.9685  140.4890  162.0320 N.ar    1  UNL1       -0.1250
     25 N         138.2288  141.7914  161.3349 N.ar    1  UNL1       -0.1220
     26 C         138.9018  142.7121  162.3092 C.ar    1  UNL1        0.1933
     27 N         139.0576  141.9788  163.6084 N.ar    1  UNL1       -0.2860
     28 C         139.6807  142.5238  164.8593 C.3     1  UNL1        0.1341
     29 C         139.9404  137.6901  163.2827 C.3     1  UNL1        0.0556
     30 C         139.0967  138.1947  164.4156 C.ar    1  UNL1        0.1001
     31 N         138.7758  137.4483  165.6765 N.ar    1  UNL1       -0.2085
     32 C         137.9065  138.3266  166.5267 C.ar    1  UNL1        0.2849
     33 O         137.6902  139.6159  165.7913 O.2     1  UNL1       -0.4283
     34 C         138.4258  139.5344  164.4866 C.ar    1  UNL1        0.1964
@<TRIPOS>BOND
     1    29    30    1
     2    30    31   ar
     3    31    32   ar
     4    32    33   ar
     5    33    34   ar
     6    34    23    1
     7    23    24   ar
     8    24    25   ar
     9    25    26   ar
    10    26    22    1
    11    22    21    1
    12    21    20    1
    13    20    19    1
    14    19     1    1
    15     1     2    1
    16     2     3    1
    17     4     3    1
    18     4     5    1
    19     5     6    1
    20     6     8    1
    21     8     9   ar
    22     9    10   ar
    23    10    11   ar
    24    11    15    1
    25    15    16    1
    26    15    17    1
    27    15    18    1
    28    11    12   ar
    29    12    13   ar
    30    13    14    1
    31     4     7    1
    32    26    27   ar
    33    27    28    1
    34    34    30   ar
    35    27    23   ar
    36     7     1    1
    37     6     4    1
    38    13     8   ar
@<TRIPOS>MOLECULE
*****
 34 38 0 0 0
SMALL
GASTEIGER

@<TRIPOS>ATOM
      1 N         143.7703  143.5109  163.2136 N.3     1  UNL1       -0.2726
      2 C         144.9653  142.8859  162.5571 C.3     1  UNL1        0.0721
      3 C         145.2001  141.5499  163.1974 C.3     1  UNL1        0.0190
      4 C         144.1502  141.3493  164.2498 C.3     1  UNL1        0.0202
      5 C         144.6252  139.9961  164.6893 C.3     1  UNL1        0.0062
      6 C         143.4301  140.6212  165.3459 C.3     1  UNL1        0.0259
      7 C         143.2665  142.5613  164.2598 C.3     1  UNL1        0.0724
      8 C         142.3245  140.5618  166.3578 C.ar    1  UNL1        0.0050
      9 C         141.1791  139.6131  166.1623 C.ar    1  UNL1       -0.0021
     10 C         140.0735  139.5537  167.1742 C.ar    1  UNL1        0.0037
     11 C         140.1132  140.4429  168.3816 C.ar    1  UNL1        0.0736
     12 C         141.2586  141.3915  168.5771 C.ar    1  UNL1        0.0332
     13 C         142.3642  141.4510  167.5652 C.ar    1  UNL1        0.1361
     14 F         143.5095  142.3996  167.7606 F       1  UNL1       -0.2045
     15 C         139.0075  140.3834  169.3935 C.3     1  UNL1        0.4186
     16 F         137.9018  140.3239  170.4054 F       1  UNL1       -0.1659
     17 F         139.7354  141.3790  170.2473 F       1  UNL1       -0.1659
     18 F         138.2796  139.3879  168.5397 F       1  UNL1       -0.1659
     19 C         143.1822  144.8505  162.8823 C.3     1  UNL1        0.0730
     20 C         141.8585  145.2526  163.4619 C.3     1  UNL1        0.0294
     21 C         140.7595  145.7320  162.5606 C.3     1  UNL1        0.0666
     22 S         139.6267  144.8150  162.2059 S.3     1  UNL1       -0.0756
     23 C         140.1287  141.0175  162.8326 C.ar    1  UNL1        0.2029
     24 N         139.1978  141.3757  163.9530 N.ar    1  UNL1       -0.1250
     25 N         138.8965  142.8418  163.8545 N.ar    1  UNL1       -0.1220
     26 C         139.6411  143.3898  162.6733 C.ar    1  UNL1        0.1933
     27 N         140.4027  142.2623  162.0417 N.ar    1  UNL1       -0.2860
     28 C         141.2836  142.3622  160.8317 C.3     1  UNL1        0.1341
     29 C         138.4093  138.2559  162.5740 C.3     1  UNL1        0.0556
     30 C         139.8972  138.3846  162.4334 C.ar    1  UNL1        0.1001
     31 N         140.8560  137.2666  162.1493 N.ar    1  UNL1       -0.2085
     32 C         142.2388  137.8449  162.0926 C.ar    1  UNL1        0.2849
     33 O         142.1347  139.3204  162.3417 O.2     1  UNL1       -0.4283
     34 C         140.6875  139.6539  162.5523 C.ar    1  UNL1        0.1964
@<TRIPOS>BOND
     1    29    30    1
     2    30    31   ar
     3    31    32   ar
     4    32    33   ar
     5    33    34   ar
     6    34    23    1
     7    23    24   ar
     8    24    25   ar
     9    25    26   ar
    10    26    22    1
    11    22    21    1
    12    21    20    1
    13    20    19    1
    14    19     1    1
    15     1     2    1
    16     2     3    1
    17     4     3    1
    18     4     5    1
    19     5     6    1
    20     6     8    1
    21     8     9   ar
    22     9    10   ar
    23    10    11   ar
    24    11    15    1
    25    15    16    1
    26    15    17    1
    27    15    18    1
    28    11    12   ar
    29    12    13   ar
    30    13    14    1
    31     4     7    1
    32    26    27   ar
    33    27    28    1
    34    34    30   ar
    35    27    23   ar
    36     7     1    1
    37     6     4    1
    38    13     8   ar
