@<TRIPOS>MOLECULE
*****
 34 38 0 0 0
SMALL
GASTEIGER

@<TRIPOS>ATOM
      1 N         142.1031  138.8704  159.4719 N.ar    1  UNL1       -0.2286
      2 C         140.6558  138.6514  159.8000 C.ar    1  UNL1        0.0990
      3 C         140.4288  139.0959  161.2145 C.ar    1  UNL1        0.0338
      4 C         141.7357  139.5897  161.7607 C.ar    1  UNL1        0.0981
      5 N         142.7705  139.4503  160.6837 N.ar    1  UNL1       -0.1680
      6 C         141.5087  140.0342  163.1752 C.3     1  UNL1        0.1414
      7 N         140.0614  139.8152  163.5033 N.am    1  UNL1       -0.2661
      8 C         139.3981  140.1222  164.8130 C.2     1  UNL1        0.2496
      9 O         137.9345  139.8481  164.9950 O.2     1  UNL1       -0.2699
     10 C         139.3941  139.2353  162.2914 C.3     1  UNL1        0.1236
     11 C         143.4395  135.4478  155.7977 C.3     1  UNL1        0.0521
     12 C         143.4347  136.8521  156.3249 C.ar    1  UNL1        0.0609
     13 C         142.7713  137.1592  157.6348 C.ar    1  UNL1        0.0339
     14 C         142.7665  138.5634  158.1621 C.ar    1  UNL1        0.0855
     15 C         143.4250  139.6607  157.3796 C.ar    1  UNL1        0.0398
     16 C         144.0884  139.3536  156.0697 C.ar    1  UNL1        0.1000
     17 N         144.0932  137.9493  155.5424 N.ar    1  UNL1       -0.2480
     18 C         140.1982  140.7033  165.9410 C.ar    1  UNL1        0.0549
     19 C         140.7639  139.8043  167.0001 C.ar    1  UNL1        0.0229
     20 C         141.5641  140.3854  168.1281 C.ar    1  UNL1        0.1059
     21 C         141.7984  141.8653  168.1969 C.ar    1  UNL1        0.0183
     22 C         141.2326  142.7643  167.1377 C.ar    1  UNL1        0.0015
     23 C         140.4325  142.1833  166.0098 C.ar    1  UNL1        0.0045
     24 C         139.8667  143.0822  164.9507 C.ar    1  UNL1        0.0024
     25 C         138.3847  143.2965  164.8621 C.ar    1  UNL1        0.0001
     26 C         137.8189  144.1955  163.8029 C.ar    1  UNL1        0.0023
     27 C         138.7351  144.8801  162.8324 C.ar    1  UNL1        0.0296
     28 C         140.2170  144.6658  162.9209 C.ar    1  UNL1        0.1401
     29 F         141.1332  145.3505  161.9504 F       1  UNL1       -0.2042
     30 C         140.7829  143.7669  163.9801 C.ar    1  UNL1        0.0296
     31 S         142.1298  139.4864  169.1872 S.O2    1  UNL1        0.0105
     32 C         142.6956  138.5873  170.2461 C.3     1  UNL1        0.1816
     33 O         143.0958  138.9191  168.1895 O.2     1  UNL1       -0.1686
     34 O         141.1639  140.0535  170.1848 O.2     1  UNL1       -0.1686
@<TRIPOS>BOND
     1    11    12    1
     2    12    13   ar
     3    13    14   ar
     4    14     1    1
     5     1     2   ar
     6     2     3   ar
     7     3     4   ar
     8     4     5   ar
     9     4     6    1
    10     6     7    1
    11     7     8   am
    12     8     9    2
    13     8    18    1
    14    18    19   ar
    15    19    20   ar
    16    20    31    1
    17    31    32    1
    18    31    33    2
    19    31    34    2
    20    20    21   ar
    21    21    22   ar
    22    22    23   ar
    23    23    24    1
    24    24    25   ar
    25    25    26   ar
    26    26    27   ar
    27    27    28   ar
    28    28    29    1
    29    28    30   ar
    30     7    10    1
    31    14    15   ar
    32    15    16   ar
    33    16    17   ar
    34    17    12   ar
    35     5     1   ar
    36    23    18   ar
    37    30    24   ar
    38    10     3    1
@<TRIPOS>MOLECULE
*****
 34 38 0 0 0
SMALL
GASTEIGER

@<TRIPOS>ATOM
      1 N         141.8930  143.7521  159.8543 N.ar    1  UNL1       -0.2286
      2 C         143.0108  142.7637  160.0071 C.ar    1  UNL1        0.0990
      3 C         142.9553  142.2131  161.4013 C.ar    1  UNL1        0.0338
      4 C         141.8032  142.8613  162.1102 C.ar    1  UNL1        0.0981
      5 N         141.1466  143.8125  161.1540 N.ar    1  UNL1       -0.1680
      6 C         141.7477  142.3108  163.5044 C.3     1  UNL1        0.1414
      7 N         142.8656  141.3223  163.6572 N.am    1  UNL1       -0.2661
      8 C         143.1816  140.5328  164.8928 C.2     1  UNL1        0.2496
      9 O         144.3374  139.5767  164.8968 O.2     1  UNL1       -0.2699
     10 C         143.6119  141.2620  162.3574 C.3     1  UNL1        0.1236
     11 C         142.8855  144.9335  154.8925 C.3     1  UNL1        0.0521
     12 C         142.0732  145.1324  156.1377 C.ar    1  UNL1        0.0609
     13 C         142.3892  144.3429  157.3734 C.ar    1  UNL1        0.0339
     14 C         141.5769  144.5417  158.6187 C.ar    1  UNL1        0.0855
     15 C         140.4486  145.5300  158.6283 C.ar    1  UNL1        0.0398
     16 C         140.1326  146.3195  157.3926 C.ar    1  UNL1        0.1000
     17 N         140.9449  146.1207  156.1473 N.ar    1  UNL1       -0.2480
     18 C         142.3419  140.6994  166.1245 C.ar    1  UNL1        0.0549
     19 C         142.8398  141.5383  167.2639 C.ar    1  UNL1        0.0229
     20 C         142.0001  141.7049  168.4957 C.ar    1  UNL1        0.1059
     21 C         140.6624  141.0326  168.5880 C.ar    1  UNL1        0.0183
     22 C         140.1644  140.1937  167.4485 C.ar    1  UNL1        0.0015
     23 C         141.0041  140.0271  166.2169 C.ar    1  UNL1        0.0045
     24 C         140.5061  139.1882  165.0775 C.ar    1  UNL1        0.0024
     25 C         141.2028  137.9061  164.7295 C.ar    1  UNL1        0.0001
     26 C         140.7048  137.0672  163.5901 C.ar    1  UNL1        0.0023
     27 C         139.5102  137.5104  162.7986 C.ar    1  UNL1        0.0296
     28 C         138.8135  138.7924  163.1464 C.ar    1  UNL1        0.1401
     29 F         137.6189  139.2356  162.3550 F       1  UNL1       -0.2042
     30 C         139.3114  139.6314  164.2859 C.ar    1  UNL1        0.0296
     31 S         142.4982  142.5438  169.6350 S.O2    1  UNL1        0.0105
     32 C         142.9961  143.3827  170.7744 C.3     1  UNL1        0.1816
     33 O         141.1848  142.3683  170.3383 O.2     1  UNL1       -0.1686
     34 O         143.8114  142.7193  168.9318 O.2     1  UNL1       -0.1686
@<TRIPOS>BOND
     1    11    12    1
     2    12    13   ar
     3    13    14   ar
     4    14     1    1
     5     1     2   ar
     6     2     3   ar
     7     3     4   ar
     8     4     5   ar
     9     4     6    1
    10     6     7    1
    11     7     8   am
    12     8     9    2
    13     8    18    1
    14    18    19   ar
    15    19    20   ar
    16    20    31    1
    17    31    32    1
    18    31    33    2
    19    31    34    2
    20    20    21   ar
    21    21    22   ar
    22    22    23   ar
    23    23    24    1
    24    24    25   ar
    25    25    26   ar
    26    26    27   ar
    27    27    28   ar
    28    28    29    1
    29    28    30   ar
    30     7    10    1
    31    14    15   ar
    32    15    16   ar
    33    16    17   ar
    34    17    12   ar
    35     5     1   ar
    36    23    18   ar
    37    30    24   ar
    38    10     3    1
@<TRIPOS>MOLECULE
*****
 34 38 0 0 0
SMALL
GASTEIGER

@<TRIPOS>ATOM
      1 N         143.1916  140.6593  159.3266 N.ar    1  UNL1       -0.2286
      2 C         141.8598  139.9780  159.4368 C.ar    1  UNL1        0.0990
      3 C         141.3989  140.0886  160.8599 C.ar    1  UNL1        0.0338
      4 C         142.4458  140.8383  161.6293 C.ar    1  UNL1        0.0981
      5 N         143.5537  141.1910  160.6817 N.ar    1  UNL1       -0.1680
      6 C         141.9849  140.9490  163.0524 C.3     1  UNL1        0.1414
      7 N         140.6530  140.2676  163.1627 N.am    1  UNL1       -0.2661
      8 C         139.8283  140.1404  164.4090 C.2     1  UNL1        0.2496
      9 O         138.5091  139.4275  164.3659 O.2     1  UNL1       -0.2699
     10 C         140.2909  139.7359  161.8076 C.3     1  UNL1        0.1236
     11 C         147.2001  142.7666  156.7790 C.3     1  UNL1        0.0521
     12 C         146.0207  141.8403  156.8064 C.ar    1  UNL1        0.0609
     13 C         145.1958  141.7129  158.0528 C.ar    1  UNL1        0.0339
     14 C         144.0164  140.7866  158.0803 C.ar    1  UNL1        0.0855
     15 C         143.6618  139.9875  156.8614 C.ar    1  UNL1        0.0398
     16 C         144.4867  140.1148  155.6150 C.ar    1  UNL1        0.1000
     17 N         145.6661  141.0412  155.5875 N.ar    1  UNL1       -0.2480
     18 C         140.3225  140.7260  165.6985 C.ar    1  UNL1        0.0549
     19 C         140.9334  139.8368  166.7406 C.ar    1  UNL1        0.0229
     20 C         141.4277  140.4224  168.0301 C.ar    1  UNL1        0.1059
     21 C         141.3109  141.8972  168.2775 C.ar    1  UNL1        0.0183
     22 C         140.7000  142.7865  167.2354 C.ar    1  UNL1        0.0015
     23 C         140.2058  142.2009  165.9459 C.ar    1  UNL1        0.0045
     24 C         139.5948  143.0901  164.9038 C.ar    1  UNL1        0.0024
     25 C         138.1153  143.0526  164.6597 C.ar    1  UNL1        0.0001
     26 C         137.5043  143.9419  163.6175 C.ar    1  UNL1        0.0023
     27 C         138.3729  144.8686  162.8196 C.ar    1  UNL1        0.0296
     28 C         139.8524  144.9061  163.0636 C.ar    1  UNL1        0.1401
     29 F         140.7210  145.8328  162.2657 F       1  UNL1       -0.2042
     30 C         140.4634  144.0169  164.1058 C.ar    1  UNL1        0.0296
     31 S         142.0386  139.5331  169.0722 S.O2    1  UNL1        0.0105
     32 C         142.6496  138.6437  170.1141 C.3     1  UNL1        0.1816
     33 O         143.0908  139.1071  168.0916 O.2     1  UNL1       -0.1686
     34 O         140.9865  139.9591  170.0528 O.2     1  UNL1       -0.1686
@<TRIPOS>BOND
     1    11    12    1
     2    12    13   ar
     3    13    14   ar
     4    14     1    1
     5     1     2   ar
     6     2     3   ar
     7     3     4   ar
     8     4     5   ar
     9     4     6    1
    10     6     7    1
    11     7     8   am
    12     8     9    2
    13     8    18    1
    14    18    19   ar
    15    19    20   ar
    16    20    31    1
    17    31    32    1
    18    31    33    2
    19    31    34    2
    20    20    21   ar
    21    21    22   ar
    22    22    23   ar
    23    23    24    1
    24    24    25   ar
    25    25    26   ar
    26    26    27   ar
    27    27    28   ar
    28    28    29    1
    29    28    30   ar
    30     7    10    1
    31    14    15   ar
    32    15    16   ar
    33    16    17   ar
    34    17    12   ar
    35     5     1   ar
    36    23    18   ar
    37    30    24   ar
    38    10     3    1
@<TRIPOS>MOLECULE
*****
 34 38 0 0 0
SMALL
GASTEIGER

@<TRIPOS>ATOM
      1 N         142.0606  138.8271  159.4903 N.ar    1  UNL1       -0.2286
      2 C         143.1915  139.8050  159.6118 C.ar    1  UNL1        0.0990
      3 C         143.1148  140.4357  160.9706 C.ar    1  UNL1        0.0338
      4 C         141.9365  139.8477  161.6888 C.ar    1  UNL1        0.0981
      5 N         141.2849  138.8535  160.7739 N.ar    1  UNL1       -0.1680
      6 C         141.8598  140.4784  163.0476 C.3     1  UNL1        0.1414
      7 N         142.9907  141.4564  163.1692 N.am    1  UNL1       -0.2661
      8 C         143.2929  142.3106  164.3645 C.2     1  UNL1        0.2496
      9 O         144.4645  143.2471  164.3402 O.2     1  UNL1       -0.2699
     10 C         143.7663  141.4299  161.8855 C.3     1  UNL1        0.1236
     11 C         143.5211  135.2052  156.0626 C.3     1  UNL1        0.0521
     12 C         142.4886  136.1618  156.5811 C.ar    1  UNL1        0.0609
     13 C         142.7908  137.0162  157.7764 C.ar    1  UNL1        0.0339
     14 C         141.7583  137.9728  158.2949 C.ar    1  UNL1        0.0855
     15 C         140.4237  138.0752  157.6181 C.ar    1  UNL1        0.0398
     16 C         140.1215  137.2208  156.4227 C.ar    1  UNL1        0.1000
     17 N         141.1539  136.2642  155.9042 N.ar    1  UNL1       -0.2480
     18 C         142.4236  142.2285  165.5841 C.ar    1  UNL1        0.0549
     19 C         142.9060  141.4960  166.8010 C.ar    1  UNL1        0.0229
     20 C         142.0366  141.4139  168.0207 C.ar    1  UNL1        0.1059
     21 C         140.6850  142.0642  168.0235 C.ar    1  UNL1        0.0183
     22 C         140.2026  142.7967  166.8066 C.ar    1  UNL1        0.0015
     23 C         141.0719  142.8788  165.5870 C.ar    1  UNL1        0.0045
     24 C         140.5895  143.6113  164.3701 C.ar    1  UNL1        0.0024
     25 C         141.2277  144.9097  163.9741 C.ar    1  UNL1        0.0001
     26 C         140.7453  145.6421  162.7572 C.ar    1  UNL1        0.0023
     27 C         139.6247  145.0762  161.9363 C.ar    1  UNL1        0.0296
     28 C         138.9864  143.7778  162.3322 C.ar    1  UNL1        0.1401
     29 F         137.8658  143.2119  161.5113 F       1  UNL1       -0.2042
     30 C         139.4688  143.0453  163.5491 C.ar    1  UNL1        0.0296
     31 S         142.5191  140.6814  169.2375 S.O2    1  UNL1        0.0105
     32 C         143.0017  139.9489  170.4543 C.3     1  UNL1        0.1816
     33 O         142.9929  139.5529  168.3703 O.2     1  UNL1       -0.1686
     34 O         142.0454  141.8099  170.1048 O.2     1  UNL1       -0.1686
@<TRIPOS>BOND
     1    11    12    1
     2    12    13   ar
     3    13    14   ar
     4    14     1    1
     5     1     2   ar
     6     2     3   ar
     7     3     4   ar
     8     4     5   ar
     9     4     6    1
    10     6     7    1
    11     7     8   am
    12     8     9    2
    13     8    18    1
    14    18    19   ar
    15    19    20   ar
    16    20    31    1
    17    31    32    1
    18    31    33    2
    19    31    34    2
    20    20    21   ar
    21    21    22   ar
    22    22    23   ar
    23    23    24    1
    24    24    25   ar
    25    25    26   ar
    26    26    27   ar
    27    27    28   ar
    28    28    29    1
    29    28    30   ar
    30     7    10    1
    31    14    15   ar
    32    15    16   ar
    33    16    17   ar
    34    17    12   ar
    35     5     1   ar
    36    23    18   ar
    37    30    24   ar
    38    10     3    1
@<TRIPOS>MOLECULE
*****
 34 38 0 0 0
SMALL
GASTEIGER

@<TRIPOS>ATOM
      1 N         139.0332  141.3448  159.4808 N.ar    1  UNL1       -0.2286
      2 C         139.7048  140.0181  159.6775 C.ar    1  UNL1        0.0990
      3 C         140.1510  139.9320  161.1071 C.ar    1  UNL1        0.0338
      4 C         139.7551  141.2055  161.7938 C.ar    1  UNL1        0.0981
      5 N         139.0642  142.0786  160.7887 N.ar    1  UNL1       -0.1680
      6 C         140.2013  141.1194  163.2233 C.3     1  UNL1        0.1414
      7 N         140.8730  139.7926  163.4201 N.am    1  UNL1       -0.2661
      8 C         141.4708  139.2883  164.7000 C.2     1  UNL1        0.2496
      9 O         142.1126  137.9333  164.7453 O.2     1  UNL1       -0.2699
     10 C         140.8419  139.0589  162.1122 C.3     1  UNL1        0.1236
     11 C         135.6064  140.8376  155.6078 C.3     1  UNL1        0.0521
     12 C         136.7219  141.5956  156.2643 C.ar    1  UNL1        0.0609
     13 C         137.3198  141.0913  157.5443 C.ar    1  UNL1        0.0339
     14 C         138.4353  141.8492  158.2008 C.ar    1  UNL1        0.0855
     15 C         138.9531  143.1115  157.5775 C.ar    1  UNL1        0.0398
     16 C         138.3552  143.6158  156.2975 C.ar    1  UNL1        0.1000
     17 N         137.2396  142.8578  155.6409 N.ar    1  UNL1       -0.2480
     18 C         141.4268  140.1390  165.9347 C.ar    1  UNL1        0.0549
     19 C         140.4027  139.8674  166.9964 C.ar    1  UNL1        0.0229
     20 C         140.3587  140.7181  168.2312 C.ar    1  UNL1        0.1059
     21 C         141.3388  141.8402  168.4041 C.ar    1  UNL1        0.0183
     22 C         142.3630  142.1119  167.3423 C.ar    1  UNL1        0.0015
     23 C         142.4070  141.2613  166.1076 C.ar    1  UNL1        0.0045
     24 C         143.4311  141.5329  165.0458 C.ar    1  UNL1        0.0024
     25 C         144.4790  140.5058  164.7344 C.ar    1  UNL1        0.0001
     26 C         145.5031  140.7774  163.6726 C.ar    1  UNL1        0.0023
     27 C         145.4793  142.0761  162.9222 C.ar    1  UNL1        0.0296
     28 C         144.4314  143.1031  163.2336 C.ar    1  UNL1        0.1401
     29 F         144.4075  144.4017  162.4833 F       1  UNL1       -0.2042
     30 C         143.4072  142.8316  164.2955 C.ar    1  UNL1        0.0296
     31 S         139.3346  140.4464  169.2929 S.O2    1  UNL1        0.0105
     32 C         138.3104  140.1746  170.3546 C.3     1  UNL1        0.1816
     33 O         138.6819  139.4302  168.4032 O.2     1  UNL1       -0.1686
     34 O         139.9872  141.4624  170.1827 O.2     1  UNL1       -0.1686
@<TRIPOS>BOND
     1    11    12    1
     2    12    13   ar
     3    13    14   ar
     4    14     1    1
     5     1     2   ar
     6     2     3   ar
     7     3     4   ar
     8     4     5   ar
     9     4     6    1
    10     6     7    1
    11     7     8   am
    12     8     9    2
    13     8    18    1
    14    18    19   ar
    15    19    20   ar
    16    20    31    1
    17    31    32    1
    18    31    33    2
    19    31    34    2
    20    20    21   ar
    21    21    22   ar
    22    22    23   ar
    23    23    24    1
    24    24    25   ar
    25    25    26   ar
    26    26    27   ar
    27    27    28   ar
    28    28    29    1
    29    28    30   ar
    30     7    10    1
    31    14    15   ar
    32    15    16   ar
    33    16    17   ar
    34    17    12   ar
    35     5     1   ar
    36    23    18   ar
    37    30    24   ar
    38    10     3    1
@<TRIPOS>MOLECULE
*****
 34 38 0 0 0
SMALL
GASTEIGER

@<TRIPOS>ATOM
      1 N         140.7866  144.2332  158.7150 N.ar    1  UNL1       -0.2286
      2 C         142.2824  144.1572  158.7957 C.ar    1  UNL1        0.0990
      3 C         142.6432  143.4735  160.0811 C.ar    1  UNL1        0.0338
      4 C         141.3702  143.1268  160.7949 C.ar    1  UNL1        0.0981
      5 N         140.2227  143.5963  159.9506 N.ar    1  UNL1       -0.1680
      6 C         141.7309  142.4431  162.0803 C.3     1  UNL1        0.1414
      7 N         143.2269  142.3671  162.1611 N.am    1  UNL1       -0.2661
      8 C         144.0198  141.7608  163.2807 C.2     1  UNL1        0.2496
      9 O         145.5187  141.7579  163.2225 O.2     1  UNL1       -0.2699
     10 C         143.7906  143.0040  160.9255 C.3     1  UNL1        0.1236
     11 C         137.4256  143.7152  154.7862 C.3     1  UNL1        0.0521
     12 C         138.3131  144.5805  155.6309 C.ar    1  UNL1        0.0609
     13 C         139.1061  143.9742  156.7506 C.ar    1  UNL1        0.0339
     14 C         139.9936  144.8395  157.5954 C.ar    1  UNL1        0.0855
     15 C         140.0882  146.3110  157.3204 C.ar    1  UNL1        0.0398
     16 C         139.2952  146.9172  156.2007 C.ar    1  UNL1        0.1000
     17 N         138.4077  146.0520  155.3560 N.ar    1  UNL1       -0.2480
     18 C         143.3138  141.1575  164.4586 C.ar    1  UNL1        0.0549
     19 C         143.2835  141.8868  165.7690 C.ar    1  UNL1        0.0229
     20 C         142.5775  141.2834  166.9471 C.ar    1  UNL1        0.1059
     21 C         141.9020  139.9508  166.8147 C.ar    1  UNL1        0.0183
     22 C         141.9323  139.2214  165.5043 C.ar    1  UNL1        0.0015
     23 C         142.6382  139.8247  164.3263 C.ar    1  UNL1        0.0045
     24 C         142.6686  139.0954  163.0159 C.ar    1  UNL1        0.0024
     25 C         143.9486  138.4853  162.5266 C.ar    1  UNL1        0.0001
     26 C         143.9789  137.7559  161.2162 C.ar    1  UNL1        0.0023
     27 C         142.7293  137.6367  160.3951 C.ar    1  UNL1        0.0296
     28 C         141.4493  138.2468  160.8843 C.ar    1  UNL1        0.1401
     29 F         140.1997  138.1276  160.0632 F       1  UNL1       -0.2042
     30 C         141.4189  138.9762  162.1948 C.ar    1  UNL1        0.0296
     31 S         142.5472  142.0129  168.2574 S.O2    1  UNL1        0.0105
     32 C         142.5169  142.7422  169.5678 C.3     1  UNL1        0.1816
     33 O         141.3505  141.2111  168.6760 O.2     1  UNL1       -0.1686
     34 O         143.7439  142.8146  167.8389 O.2     1  UNL1       -0.1686
@<TRIPOS>BOND
     1    11    12    1
     2    12    13   ar
     3    13    14   ar
     4    14     1    1
     5     1     2   ar
     6     2     3   ar
     7     3     4   ar
     8     4     5   ar
     9     4     6    1
    10     6     7    1
    11     7     8   am
    12     8     9    2
    13     8    18    1
    14    18    19   ar
    15    19    20   ar
    16    20    31    1
    17    31    32    1
    18    31    33    2
    19    31    34    2
    20    20    21   ar
    21    21    22   ar
    22    22    23   ar
    23    23    24    1
    24    24    25   ar
    25    25    26   ar
    26    26    27   ar
    27    27    28   ar
    28    28    29    1
    29    28    30   ar
    30     7    10    1
    31    14    15   ar
    32    15    16   ar
    33    16    17   ar
    34    17    12   ar
    35     5     1   ar
    36    23    18   ar
    37    30    24   ar
    38    10     3    1
@<TRIPOS>MOLECULE
*****
 34 38 0 0 0
SMALL
GASTEIGER

@<TRIPOS>ATOM
      1 N         140.7910  139.6739  165.0432 N.ar    1  UNL1       -0.2286
      2 C         139.4716  139.6999  164.3302 C.ar    1  UNL1        0.0990
      3 C         139.7403  139.6372  162.8558 C.ar    1  UNL1        0.0338
      4 C         141.2257  139.5724  162.6576 C.ar    1  UNL1        0.0981
      5 N         141.8751  139.5951  164.0096 N.ar    1  UNL1       -0.1680
      6 C         141.4944  139.5096  161.1832 C.3     1  UNL1        0.1414
      7 N         140.1749  139.5356  160.4701 N.am    1  UNL1       -0.2661
      8 C         139.9748  139.4906  158.9842 C.2     1  UNL1        0.2496
      9 O         138.5883  139.5243  158.4128 O.2     1  UNL1       -0.2699
     10 C         139.0909  139.6144  161.5038 C.3     1  UNL1        0.1236
     11 C         138.8769  140.3776  169.8225 C.3     1  UNL1        0.0521
     12 C         140.0341  140.0707  168.9188 C.ar    1  UNL1        0.0609
     13 C         139.8340  140.0258  167.4329 C.ar    1  UNL1        0.0339
     14 C         140.9912  139.7189  166.5291 C.ar    1  UNL1        0.0855
     15 C         142.3485  139.4570  167.1113 C.ar    1  UNL1        0.0398
     16 C         142.5486  139.5019  168.5973 C.ar    1  UNL1        0.1000
     17 N         141.3914  139.8088  169.5010 N.ar    1  UNL1       -0.2480
     18 C         141.1611  139.4121  158.0697 C.ar    1  UNL1        0.0549
     19 C         141.6515  138.0780  157.5903 C.ar    1  UNL1        0.0229
     20 C         142.8379  137.9994  156.6757 C.ar    1  UNL1        0.1059
     21 C         143.5338  139.2548  156.2405 C.ar    1  UNL1        0.0183
     22 C         143.0435  140.5890  156.7198 C.ar    1  UNL1        0.0015
     23 C         141.8571  140.6675  157.6344 C.ar    1  UNL1        0.0045
     24 C         141.3668  142.0016  158.1137 C.ar    1  UNL1        0.0024
     25 C         140.2643  142.7040  157.3781 C.ar    1  UNL1        0.0001
     26 C         139.7739  144.0381  157.8574 C.ar    1  UNL1        0.0023
     27 C         140.3860  144.6697  159.0724 C.ar    1  UNL1        0.0296
     28 C         141.4885  143.9675  159.8081 C.ar    1  UNL1        0.1401
     29 F         142.1006  144.5992  161.0231 F       1  UNL1       -0.2042
     30 C         141.9789  142.6334  159.3288 C.ar    1  UNL1        0.0296
     31 S         143.3282  136.6653  156.1964 S.O2    1  UNL1        0.0105
     32 C         143.8186  135.3312  155.7171 C.3     1  UNL1        0.1816
     33 O         144.5983  137.3040  155.7179 O.2     1  UNL1       -0.1686
     34 O         142.0581  136.0265  156.6749 O.2     1  UNL1       -0.1686
@<TRIPOS>BOND
     1    11    12    1
     2    12    13   ar
     3    13    14   ar
     4    14     1    1
     5     1     2   ar
     6     2     3   ar
     7     3     4   ar
     8     4     5   ar
     9     4     6    1
    10     6     7    1
    11     7     8   am
    12     8     9    2
    13     8    18    1
    14    18    19   ar
    15    19    20   ar
    16    20    31    1
    17    31    32    1
    18    31    33    2
    19    31    34    2
    20    20    21   ar
    21    21    22   ar
    22    22    23   ar
    23    23    24    1
    24    24    25   ar
    25    25    26   ar
    26    26    27   ar
    27    27    28   ar
    28    28    29    1
    29    28    30   ar
    30     7    10    1
    31    14    15   ar
    32    15    16   ar
    33    16    17   ar
    34    17    12   ar
    35     5     1   ar
    36    23    18   ar
    37    30    24   ar
    38    10     3    1
@<TRIPOS>MOLECULE
*****
 34 38 0 0 0
SMALL
GASTEIGER

@<TRIPOS>ATOM
      1 N         140.1290  139.1192  164.4287 N.ar    1  UNL1       -0.2286
      2 C         141.4370  139.7749  164.0984 C.ar    1  UNL1        0.0990
      3 C         141.7391  139.5049  162.6541 C.ar    1  UNL1        0.0338
      4 C         140.6178  138.6823  162.0919 C.ar    1  UNL1        0.0981
      5 N         139.6227  138.4440  163.1886 N.ar    1  UNL1       -0.1680
      6 C         140.9199  138.4124  160.6476 C.3     1  UNL1        0.1414
      7 N         142.2280  139.0681  160.3173 N.am    1  UNL1       -0.2661
      8 C         142.9100  139.0515  158.9815 C.2     1  UNL1        0.2496
      9 O         144.2222  139.7555  158.8004 O.2     1  UNL1       -0.2699
     10 C         142.7343  139.7433  161.5574 C.3     1  UNL1        0.1236
     11 C         139.8850  140.8101  169.3359 C.3     1  UNL1        0.0521
     12 C         139.3249  139.9813  168.2183 C.ar    1  UNL1        0.0609
     13 C         140.0069  139.9646  166.8823 C.ar    1  UNL1        0.0339
     14 C         139.4469  139.1358  165.7646 C.ar    1  UNL1        0.0855
     15 C         138.2049  138.3235  165.9827 C.ar    1  UNL1        0.0398
     16 C         137.5229  138.3402  167.3186 C.ar    1  UNL1        0.1000
     17 N         138.0829  139.1690  168.4364 N.ar    1  UNL1       -0.2480
     18 C         142.2800  138.3308  157.8266 C.ar    1  UNL1        0.0549
     19 C         142.6321  136.8984  157.5542 C.ar    1  UNL1        0.0229
     20 C         142.0020  136.1777  156.3993 C.ar    1  UNL1        0.1059
     21 C         141.0200  136.8894  155.5168 C.ar    1  UNL1        0.0183
     22 C         140.6678  138.3219  155.7891 C.ar    1  UNL1        0.0015
     23 C         141.2979  139.0426  156.9440 C.ar    1  UNL1        0.0045
     24 C         140.9458  140.4750  157.2164 C.ar    1  UNL1        0.0024
     25 C         141.8015  141.5759  156.6634 C.ar    1  UNL1        0.0001
     26 C         141.4494  143.0083  156.9358 C.ar    1  UNL1        0.0023
     27 C         140.2416  143.3398  157.7611 C.ar    1  UNL1        0.0296
     28 C         139.3858  142.2391  158.3141 C.ar    1  UNL1        0.1401
     29 F         138.1779  142.5706  159.1394 F       1  UNL1       -0.2042
     30 C         139.7378  140.8066  158.0417 C.ar    1  UNL1        0.0296
     31 S         142.3542  134.7453  156.1270 S.O2    1  UNL1        0.0105
     32 C         142.7065  133.3129  155.8549 C.3     1  UNL1        0.1816
     33 O         143.5452  134.8664  157.0310 O.2     1  UNL1       -0.1686
     34 O         141.1633  134.6242  155.2231 O.2     1  UNL1       -0.1686
@<TRIPOS>BOND
     1    11    12    1
     2    12    13   ar
     3    13    14   ar
     4    14     1    1
     5     1     2   ar
     6     2     3   ar
     7     3     4   ar
     8     4     5   ar
     9     4     6    1
    10     6     7    1
    11     7     8   am
    12     8     9    2
    13     8    18    1
    14    18    19   ar
    15    19    20   ar
    16    20    31    1
    17    31    32    1
    18    31    33    2
    19    31    34    2
    20    20    21   ar
    21    21    22   ar
    22    22    23   ar
    23    23    24    1
    24    24    25   ar
    25    25    26   ar
    26    26    27   ar
    27    27    28   ar
    28    28    29    1
    29    28    30   ar
    30     7    10    1
    31    14    15   ar
    32    15    16   ar
    33    16    17   ar
    34    17    12   ar
    35     5     1   ar
    36    23    18   ar
    37    30    24   ar
    38    10     3    1
@<TRIPOS>MOLECULE
*****
 34 38 0 0 0
SMALL
GASTEIGER

@<TRIPOS>ATOM
      1 N         142.4830  141.3794  166.8232 N.ar    1  UNL1       -0.2286
      2 C         142.7221  139.9320  166.5104 C.ar    1  UNL1        0.0990
      3 C         142.7482  139.7785  165.0185 C.ar    1  UNL1        0.0338
      4 C         142.5252  141.1309  164.4093 C.ar    1  UNL1        0.0981
      5 N         142.3613  142.1204  165.5247 N.ar    1  UNL1       -0.1680
      6 C         142.5512  140.9774  162.9174 C.3     1  UNL1        0.1414
      7 N         142.7903  139.5300  162.6045 N.am    1  UNL1       -0.2661
      8 C         142.8902  138.9291  161.2338 C.2     1  UNL1        0.2496
      9 O         143.1332  137.4573  161.0759 O.2     1  UNL1       -0.2699
     10 C         142.9120  138.7890  163.9031 C.3     1  UNL1        0.1236
     11 C         139.5924  143.1880  170.7441 C.3     1  UNL1        0.0521
     12 C         140.9378  142.8846  170.1544 C.ar    1  UNL1        0.0609
     13 C         141.0378  142.2837  168.7837 C.ar    1  UNL1        0.0339
     14 C         142.3832  141.9803  168.1940 C.ar    1  UNL1        0.0855
     15 C         143.6287  142.2779  168.9750 C.ar    1  UNL1        0.0398
     16 C         143.5288  142.8788  170.3458 C.ar    1  UNL1        0.1000
     17 N         142.1834  143.1822  170.9355 N.ar    1  UNL1       -0.2480
     18 C         142.7470  139.7999  160.0209 C.ar    1  UNL1        0.0549
     19 C         143.9608  140.1921  159.2317 C.ar    1  UNL1        0.0229
     20 C         143.8177  141.0629  158.0187 C.ar    1  UNL1        0.1059
     21 C         142.4608  141.5415  157.5950 C.ar    1  UNL1        0.0183
     22 C         141.2469  141.1494  158.3842 C.ar    1  UNL1        0.0015
     23 C         141.3900  140.2786  159.5971 C.ar    1  UNL1        0.0045
     24 C         140.1762  139.8864  160.3863 C.ar    1  UNL1        0.0024
     25 C         139.7885  138.4417  160.4976 C.ar    1  UNL1        0.0001
     26 C         138.5747  138.0495  161.2868 C.ar    1  UNL1        0.0023
     27 C         137.7486  139.1021  161.9647 C.ar    1  UNL1        0.0296
     28 C         138.1362  140.5468  161.8535 C.ar    1  UNL1        0.1401
     29 F         137.3101  141.5994  162.5314 F       1  UNL1       -0.2042
     30 C         139.3501  140.9391  161.0643 C.ar    1  UNL1        0.0296
     31 S         145.0315  141.4550  157.2296 S.O2    1  UNL1        0.0105
     32 C         146.2454  141.8472  156.4405 C.3     1  UNL1        0.1816
     33 O         144.9475  142.8437  157.7904 O.2     1  UNL1       -0.1686
     34 O         145.1156  140.0664  156.6687 O.2     1  UNL1       -0.1686
@<TRIPOS>BOND
     1    11    12    1
     2    12    13   ar
     3    13    14   ar
     4    14     1    1
     5     1     2   ar
     6     2     3   ar
     7     3     4   ar
     8     4     5   ar
     9     4     6    1
    10     6     7    1
    11     7     8   am
    12     8     9    2
    13     8    18    1
    14    18    19   ar
    15    19    20   ar
    16    20    31    1
    17    31    32    1
    18    31    33    2
    19    31    34    2
    20    20    21   ar
    21    21    22   ar
    22    22    23   ar
    23    23    24    1
    24    24    25   ar
    25    25    26   ar
    26    26    27   ar
    27    27    28   ar
    28    28    29    1
    29    28    30   ar
    30     7    10    1
    31    14    15   ar
    32    15    16   ar
    33    16    17   ar
    34    17    12   ar
    35     5     1   ar
    36    23    18   ar
    37    30    24   ar
    38    10     3    1
