@<TRIPOS>MOLECULE
*****
 32 35 0 0 0
SMALL
GASTEIGER

@<TRIPOS>ATOM
      1 C         142.2566  140.1853  164.2325 C.2     1  UNL1        0.1397
      2 C         142.7326  140.4960  162.8444 C.2     1  UNL1        0.1355
      3 N         142.2691  141.7447  162.1546 N.pl3   1  UNL1       -0.2011
      4 C         141.3295  142.6826  162.8527 C.2     1  UNL1        0.3262
      5 N         140.8535  142.3719  164.2408 N.2     1  UNL1       -0.0595
      6 C         141.3170  141.1232  164.9307 C.3     1  UNL1        0.2691
      7 H         142.5815  141.9487  161.2435 H       1  UNL1        0.2982
      8 C         140.8410  140.8125  166.3188 C.ar    1  UNL1        0.0371
      9 C         139.5815  140.0232  166.5207 C.ar    1  UNL1        0.0030
     10 C         139.1054  139.7125  167.9087 C.ar    1  UNL1        0.0295
     11 C         139.8888  140.1910  169.0950 C.ar    1  UNL1        0.1406
     12 F         139.4127  139.8802  170.4831 F       1  UNL1       -0.2042
     13 C         141.1483  140.9802  168.8932 C.ar    1  UNL1        0.0362
     14 C         141.6244  141.2910  167.5051 C.ar    1  UNL1        0.0372
     15 BR        142.8839  142.0802  167.3033 Br      1  UNL1       -0.0491
     16 C         140.8660  143.9313  162.1629 C.ar    1  UNL1        0.1115
     17 C         140.2619  145.1330  162.8268 C.ar    1  UNL1        0.0144
     18 C         139.9477  146.1420  161.7622 C.ar    1  UNL1        0.0077
     19 C         140.3576  145.5638  160.4402 C.ar    1  UNL1        0.0357
     20 S         140.9252  144.1975  160.6879 S.2     1  UNL1       -0.0792
     21 C         142.7201  138.9366  164.9224 C.2     1  UNL1        0.3447
     22 O         144.0713  138.8964  165.5725 O.2     1  UNL1       -0.2450
     23 O         141.8325  137.7281  164.9621 O.3     1  UNL1       -0.4455
     24 C         139.6368  137.6489  163.5755 C.3     1  UNL1        0.0513
     25 C         141.0882  137.3034  163.7310 C.3     1  UNL1        0.2089
     26 C         143.6722  139.5581  162.1462 C.3     1  UNL1        0.1405
     27 N         143.5037  139.2800  160.6819 N.3     1  UNL1       -0.2617
     28 C         142.8849  137.9905  160.2297 C.3     1  UNL1        0.1050
     29 C         142.7164  137.7124  158.7654 C.3     1  UNL1        0.1595
     30 O         143.1667  138.7237  157.7532 O.3     1  UNL1       -0.3508
     31 C         143.7856  140.0131  158.2054 C.3     1  UNL1        0.1595
     32 C         143.9541  140.2912  159.6697 C.3     1  UNL1        0.1050
@<TRIPOS>BOND
     1    24    25    1
     2    25    23    1
     3    23    21    1
     4    21    22    2
     5    21     1    1
     6     1     2    2
     7     2    26    1
     8    26    27    1
     9    27    28    1
    10    28    29    1
    11    29    30    1
    12    30    31    1
    13    31    32    1
    14     2     3    1
    15     3     4    1
    16     4    16    1
    17    16    17   ar
    18    17    18   ar
    19    18    19   ar
    20    19    20   ar
    21     4     5    2
    22     5     6    1
    23     6     8    1
    24     8     9   ar
    25     9    10   ar
    26    10    11   ar
    27    11    12    1
    28    11    13   ar
    29    13    14   ar
    30    14    15    1
    31     6     1    1
    32    14     8   ar
    33    32    27    1
    34    20    16   ar
    35     3     7    1
@<TRIPOS>MOLECULE
*****
 32 35 0 0 0
SMALL
GASTEIGER

@<TRIPOS>ATOM
      1 C         142.1089  140.1276  164.2097 C.2     1  UNL1        0.1397
      2 C         142.5028  140.4340  162.7952 C.2     1  UNL1        0.1355
      3 N         142.0487  141.7096  162.1497 N.pl3   1  UNL1       -0.2011
      4 C         141.2007  142.6788  162.9187 C.2     1  UNL1        0.3262
      5 N         140.8068  142.3724  164.3332 N.2     1  UNL1       -0.0595
      6 C         141.2610  141.0969  164.9787 C.3     1  UNL1        0.2691
      7 H         142.3072  141.9106  161.2212 H       1  UNL1        0.2982
      8 C         140.8670  140.7905  166.3933 C.ar    1  UNL1        0.0371
      9 C         141.8115  141.0962  167.5178 C.ar    1  UNL1        0.0030
     10 C         141.4177  140.7899  168.9324 C.ar    1  UNL1        0.0295
     11 C         140.0792  140.1779  169.2225 C.ar    1  UNL1        0.1406
     12 F         139.6854  139.8716  170.6371 F       1  UNL1       -0.2042
     13 C         139.1347  139.8722  168.0980 C.ar    1  UNL1        0.0362
     14 C         139.5287  140.1785  166.6834 C.ar    1  UNL1        0.0372
     15 BR        138.5842  139.8728  165.5589 Br      1  UNL1       -0.0491
     16 C         140.7466  143.9544  162.2732 C.ar    1  UNL1        0.1115
     17 C         140.1288  145.1268  162.9758 C.ar    1  UNL1        0.0144
     18 C         139.8309  146.1786  161.9486 C.ar    1  UNL1        0.0077
     19 C         140.2646  145.6561  160.6111 C.ar    1  UNL1        0.0357
     20 S         140.8305  144.2815  160.8117 S.2     1  UNL1       -0.0792
     21 C         142.5631  138.8521  164.8552 C.2     1  UNL1        0.3447
     22 O         143.9403  138.7573  165.4418 O.2     1  UNL1       -0.2450
     23 O         141.6399  137.6713  164.9141 O.3     1  UNL1       -0.4455
     24 C         139.9452  137.5789  162.9470 C.3     1  UNL1        0.0513
     25 C         141.1556  137.0339  163.6456 C.3     1  UNL1        0.2089
     26 C         143.3509  139.4647  162.0260 C.3     1  UNL1        0.1405
     27 N         143.1581  139.3092  160.5467 N.3     1  UNL1       -0.2617
     28 C         143.8228  140.2635  159.5993 C.3     1  UNL1        0.1050
     29 C         143.6300  140.1080  158.1198 C.3     1  UNL1        0.1595
     30 O         142.7725  138.9982  157.5878 O.3     1  UNL1       -0.3508
     31 C         142.1078  138.0439  158.5352 C.3     1  UNL1        0.1595
     32 C         142.3006  138.1994  160.0146 C.3     1  UNL1        0.1050
@<TRIPOS>BOND
     1    24    25    1
     2    25    23    1
     3    23    21    1
     4    21    22    2
     5    21     1    1
     6     1     2    2
     7     2    26    1
     8    26    27    1
     9    27    28    1
    10    28    29    1
    11    29    30    1
    12    30    31    1
    13    31    32    1
    14     2     3    1
    15     3     4    1
    16     4    16    1
    17    16    17   ar
    18    17    18   ar
    19    18    19   ar
    20    19    20   ar
    21     4     5    2
    22     5     6    1
    23     6     8    1
    24     8     9   ar
    25     9    10   ar
    26    10    11   ar
    27    11    12    1
    28    11    13   ar
    29    13    14   ar
    30    14    15    1
    31     6     1    1
    32    14     8   ar
    33    32    27    1
    34    20    16   ar
    35     3     7    1
@<TRIPOS>MOLECULE
*****
 32 35 0 0 0
SMALL
GASTEIGER

@<TRIPOS>ATOM
      1 C         139.5162  142.0012  163.7587 C.2     1  UNL1        0.1397
      2 C         139.5573  141.9427  162.2604 C.2     1  UNL1        0.1355
      3 N         140.4495  140.9523  161.5727 N.pl3   1  UNL1       -0.2011
      4 C         141.3006  140.0204  162.3832 C.2     1  UNL1        0.3262
      5 N         141.2596  140.0789  163.8814 N.2     1  UNL1       -0.0595
      6 C         140.3674  141.0693  164.5692 C.3     1  UNL1        0.2691
      7 H         140.4764  140.9139  160.5893 H       1  UNL1        0.2982
      8 C         140.3264  141.1278  166.0675 C.ar    1  UNL1        0.0371
      9 C         141.1865  142.1119  166.8035 C.ar    1  UNL1        0.0030
     10 C         141.1455  142.1704  168.3018 C.ar    1  UNL1        0.0295
     11 C         140.2444  141.2447  169.0642 C.ar    1  UNL1        0.1406
     12 F         140.2034  141.3032  170.5624 F       1  UNL1       -0.2042
     13 C         139.3843  140.2606  168.3282 C.ar    1  UNL1        0.0362
     14 C         139.4253  140.2021  166.8298 C.ar    1  UNL1        0.0372
     15 BR        138.5652  139.2180  166.0939 Br      1  UNL1       -0.0491
     16 C         142.1929  139.0299  161.6954 C.ar    1  UNL1        0.1115
     17 C         141.8824  138.2983  160.4233 C.ar    1  UNL1        0.0144
     18 C         143.0498  137.4134  160.1007 C.ar    1  UNL1        0.0077
     19 C         144.0819  137.5982  161.1734 C.ar    1  UNL1        0.0357
     20 S         143.5522  138.5973  162.1590 S.2     1  UNL1       -0.0792
     21 C         138.6240  142.9917  164.4464 C.2     1  UNL1        0.3447
     22 O         137.1674  142.6860  164.6327 O.2     1  UNL1       -0.2450
     23 O         139.1884  144.2877  164.9479 O.3     1  UNL1       -0.4455
     24 C         141.4828  144.9547  163.9274 C.3     1  UNL1        0.0513
     25 C         140.0001  145.1563  164.0331 C.3     1  UNL1        0.2089
     26 C         138.7061  142.8747  161.4498 C.3     1  UNL1        0.1405
     27 N         139.2586  143.5043  160.2056 N.3     1  UNL1       -0.2617
     28 C         140.1581  144.7005  160.3062 C.3     1  UNL1        0.1050
     29 C         140.7106  145.3302  159.0619 C.3     1  UNL1        0.1595
     30 O         140.3638  144.7636  157.7170 O.3     1  UNL1       -0.3508
     31 C         139.4644  143.5674  157.6164 C.3     1  UNL1        0.1595
     32 C         138.9118  142.9378  158.8607 C.3     1  UNL1        0.1050
@<TRIPOS>BOND
     1    24    25    1
     2    25    23    1
     3    23    21    1
     4    21    22    2
     5    21     1    1
     6     1     2    2
     7     2    26    1
     8    26    27    1
     9    27    28    1
    10    28    29    1
    11    29    30    1
    12    30    31    1
    13    31    32    1
    14     2     3    1
    15     3     4    1
    16     4    16    1
    17    16    17   ar
    18    17    18   ar
    19    18    19   ar
    20    19    20   ar
    21     4     5    2
    22     5     6    1
    23     6     8    1
    24     8     9   ar
    25     9    10   ar
    26    10    11   ar
    27    11    12    1
    28    11    13   ar
    29    13    14   ar
    30    14    15    1
    31     6     1    1
    32    14     8   ar
    33    32    27    1
    34    20    16   ar
    35     3     7    1
@<TRIPOS>MOLECULE
*****
 32 35 0 0 0
SMALL
GASTEIGER

@<TRIPOS>ATOM
      1 C         141.3548  139.6937  164.0564 C.2     1  UNL1        0.1397
      2 C         141.5627  139.9048  162.5860 C.2     1  UNL1        0.1355
      3 N         141.2585  141.2379  161.9692 N.pl3   1  UNL1       -0.2011
      4 C         140.7465  142.3599  162.8229 C.2     1  UNL1        0.3262
      5 N         140.5386  142.1489  164.2933 N.2     1  UNL1       -0.0595
      6 C         140.8428  140.8158  164.9101 C.3     1  UNL1        0.2691
      7 H         141.3950  141.3764  161.0041 H       1  UNL1        0.2982
      8 C         140.6349  140.6048  166.3806 C.ar    1  UNL1        0.0371
      9 C         141.7208  140.9645  167.3508 C.ar    1  UNL1        0.0030
     10 C         141.5130  140.7535  168.8212 C.ar    1  UNL1        0.0295
     11 C         140.2191  140.1827  169.3215 C.ar    1  UNL1        0.1406
     12 F         140.0113  139.9718  170.7920 F       1  UNL1       -0.2042
     13 C         139.1332  139.8230  168.3514 C.ar    1  UNL1        0.0362
     14 C         139.3411  140.0341  166.8808 C.ar    1  UNL1        0.0372
     15 BR        138.2551  139.6743  165.9107 Br      1  UNL1       -0.0491
     16 C         140.4424  143.6930  162.2062 C.ar    1  UNL1        0.1115
     17 C         140.7675  144.1099  160.8025 C.ar    1  UNL1        0.0144
     18 C         140.2858  145.5178  160.6136 C.ar    1  UNL1        0.0077
     19 C         139.6628  145.9711  161.9006 C.ar    1  UNL1        0.0357
     20 S         139.7596  144.8433  162.8849 S.2     1  UNL1       -0.0792
     21 C         141.6589  138.3606  164.6731 C.2     1  UNL1        0.3447
     22 O         140.5985  137.3014  164.7307 O.2     1  UNL1       -0.2450
     23 O         143.0236  138.0868  165.2323 O.3     1  UNL1       -0.4455
     24 C         145.0130  139.4145  164.2177 C.3     1  UNL1        0.0513
     25 C         144.0304  139.1944  165.3295 C.3     1  UNL1        0.2089
     26 C         142.0747  138.7827  161.7322 C.3     1  UNL1        0.1405
     27 N         142.6347  139.0714  160.3710 N.3     1  UNL1       -0.2617
     28 C         142.1972  138.2547  159.1913 C.3     1  UNL1        0.1050
     29 C         142.7573  138.5434  157.8300 C.3     1  UNL1        0.1595
     30 O         143.7548  139.6488  157.6485 O.3     1  UNL1       -0.3508
     31 C         144.1924  140.4655  158.8281 C.3     1  UNL1        0.1595
     32 C         143.6324  140.1768  160.1893 C.3     1  UNL1        0.1050
@<TRIPOS>BOND
     1    24    25    1
     2    25    23    1
     3    23    21    1
     4    21    22    2
     5    21     1    1
     6     1     2    2
     7     2    26    1
     8    26    27    1
     9    27    28    1
    10    28    29    1
    11    29    30    1
    12    30    31    1
    13    31    32    1
    14     2     3    1
    15     3     4    1
    16     4    16    1
    17    16    17   ar
    18    17    18   ar
    19    18    19   ar
    20    19    20   ar
    21     4     5    2
    22     5     6    1
    23     6     8    1
    24     8     9   ar
    25     9    10   ar
    26    10    11   ar
    27    11    12    1
    28    11    13   ar
    29    13    14   ar
    30    14    15    1
    31     6     1    1
    32    14     8   ar
    33    32    27    1
    34    20    16   ar
    35     3     7    1
@<TRIPOS>MOLECULE
*****
 32 35 0 0 0
SMALL
GASTEIGER

@<TRIPOS>ATOM
      1 C         139.7931  141.0123  160.7075 C.2     1  UNL1        0.1397
      2 C         139.9095  140.2180  159.4405 C.2     1  UNL1        0.1355
      3 N         139.1577  140.6461  158.2151 N.pl3   1  UNL1       -0.2011
      4 C         138.2895  141.8685  158.2568 C.2     1  UNL1        0.3262
      5 N         138.1731  142.6629  159.5239 N.2     1  UNL1       -0.0595
      6 C         138.9249  142.2347  160.7492 C.3     1  UNL1        0.2691
      7 H         139.2341  140.1247  157.3835 H       1  UNL1        0.2982
      8 C         138.8085  143.0291  162.0163 C.ar    1  UNL1        0.0371
      9 C         137.7864  142.6512  163.0471 C.ar    1  UNL1        0.0030
     10 C         137.6699  143.4456  164.3142 C.ar    1  UNL1        0.0295
     11 C         138.5756  144.6178  164.5505 C.ar    1  UNL1        0.1406
     12 F         138.4591  145.4121  165.8175 F       1  UNL1       -0.2042
     13 C         139.5976  144.9957  163.5196 C.ar    1  UNL1        0.0362
     14 C         139.7141  144.2013  162.2525 C.ar    1  UNL1        0.0372
     15 BR        140.7361  144.5791  161.2217 Br      1  UNL1       -0.0491
     16 C         137.5377  142.2967  157.0315 C.ar    1  UNL1        0.1115
     17 C         136.4167  141.5448  156.3772 C.ar    1  UNL1        0.0144
     18 C         135.9611  142.3353  155.1866 C.ar    1  UNL1        0.0077
     19 C         136.8005  143.5758  155.1050 C.ar    1  UNL1        0.0357
     20 S         137.7748  143.5519  156.2452 S.2     1  UNL1       -0.0792
     21 C         140.5449  140.5841  161.9329 C.2     1  UNL1        0.3447
     22 O         141.8209  141.2766  162.3100 O.2     1  UNL1       -0.2450
     23 O         140.0208  139.4635  162.7810 O.3     1  UNL1       -0.4455
     24 C         138.0098  138.0478  161.9432 C.3     1  UNL1        0.0513
     25 C         138.5525  139.1570  162.7950 C.3     1  UNL1        0.2089
     26 C         140.7778  138.9954  159.3987 C.3     1  UNL1        0.1405
     27 N         141.8702  138.8859  158.3766 N.3     1  UNL1       -0.2617
     28 C         142.8200  140.0281  158.1687 C.3     1  UNL1        0.1050
     29 C         143.9124  139.9186  157.1465 C.3     1  UNL1        0.1595
     30 O         144.0550  138.6668  156.3325 O.3     1  UNL1       -0.3508
     31 C         143.1052  137.5246  156.5404 C.3     1  UNL1        0.1595
     32 C         142.0128  137.6341  157.5625 C.3     1  UNL1        0.1050
@<TRIPOS>BOND
     1    24    25    1
     2    25    23    1
     3    23    21    1
     4    21    22    2
     5    21     1    1
     6     1     2    2
     7     2    26    1
     8    26    27    1
     9    27    28    1
    10    28    29    1
    11    29    30    1
    12    30    31    1
    13    31    32    1
    14     2     3    1
    15     3     4    1
    16     4    16    1
    17    16    17   ar
    18    17    18   ar
    19    18    19   ar
    20    19    20   ar
    21     4     5    2
    22     5     6    1
    23     6     8    1
    24     8     9   ar
    25     9    10   ar
    26    10    11   ar
    27    11    12    1
    28    11    13   ar
    29    13    14   ar
    30    14    15    1
    31     6     1    1
    32    14     8   ar
    33    32    27    1
    34    20    16   ar
    35     3     7    1
@<TRIPOS>MOLECULE
*****
 32 35 0 0 0
SMALL
GASTEIGER

@<TRIPOS>ATOM
      1 C         142.0060  143.5648  159.8035 C.2     1  UNL1        0.1397
      2 C         142.8317  143.6410  158.5536 C.2     1  UNL1        0.1355
      3 N         142.3497  144.4474  157.3843 N.pl3   1  UNL1       -0.2011
      4 C         141.0419  145.1776  157.4648 C.2     1  UNL1        0.3262
      5 N         140.2162  145.1014  158.7148 N.2     1  UNL1       -0.0595
      6 C         140.6983  144.2950  159.8841 C.3     1  UNL1        0.2691
      7 H         142.8917  144.4974  156.5639 H       1  UNL1        0.2982
      8 C         139.8725  144.2189  161.1341 C.ar    1  UNL1        0.0371
      9 C         140.1072  145.1949  162.2486 C.ar    1  UNL1        0.0030
     10 C         139.2815  145.1188  163.4986 C.ar    1  UNL1        0.0295
     11 C         138.2209  144.0666  163.6340 C.ar    1  UNL1        0.1406
     12 F         137.3952  143.9905  164.8839 F       1  UNL1       -0.2042
     13 C         137.9862  143.0906  162.5194 C.ar    1  UNL1        0.0362
     14 C         138.8120  143.1667  161.2694 C.ar    1  UNL1        0.0372
     15 BR        138.5773  142.1907  160.1548 Br      1  UNL1       -0.0491
     16 C         140.5599  145.9840  156.2955 C.ar    1  UNL1        0.1115
     17 C         141.1578  145.9867  154.9198 C.ar    1  UNL1        0.0144
     18 C         140.3628  146.9337  154.0706 C.ar    1  UNL1        0.0077
     19 C         139.2734  147.5162  154.9214 C.ar    1  UNL1        0.0357
     20 S         139.3953  146.9293  156.2965 S.2     1  UNL1       -0.0792
     21 C         142.4880  142.7584  160.9729 C.2     1  UNL1        0.3447
     22 O         141.9024  141.4041  161.2424 O.2     1  UNL1       -0.2450
     23 O         143.5557  143.3064  161.8727 O.3     1  UNL1       -0.4455
     24 C         143.4320  145.0159  163.8253 C.3     1  UNL1        0.0513
     25 C         143.2404  143.6222  163.3048 C.3     1  UNL1        0.2089
     26 C         144.1396  142.9108  158.4730 C.3     1  UNL1        0.1405
     27 N         144.2450  141.6476  157.6711 N.3     1  UNL1       -0.2617
     28 C         143.2467  140.5462  157.8718 C.3     1  UNL1        0.1050
     29 C         143.3522  139.2829  157.0699 C.3     1  UNL1        0.1595
     30 O         144.4560  139.1211  156.0673 O.3     1  UNL1       -0.3508
     31 C         145.4544  140.2224  155.8665 C.3     1  UNL1        0.1595
     32 C         145.3489  141.4856  156.6684 C.3     1  UNL1        0.1050
@<TRIPOS>BOND
     1    24    25    1
     2    25    23    1
     3    23    21    1
     4    21    22    2
     5    21     1    1
     6     1     2    2
     7     2    26    1
     8    26    27    1
     9    27    28    1
    10    28    29    1
    11    29    30    1
    12    30    31    1
    13    31    32    1
    14     2     3    1
    15     3     4    1
    16     4    16    1
    17    16    17   ar
    18    17    18   ar
    19    18    19   ar
    20    19    20   ar
    21     4     5    2
    22     5     6    1
    23     6     8    1
    24     8     9   ar
    25     9    10   ar
    26    10    11   ar
    27    11    12    1
    28    11    13   ar
    29    13    14   ar
    30    14    15    1
    31     6     1    1
    32    14     8   ar
    33    32    27    1
    34    20    16   ar
    35     3     7    1
@<TRIPOS>MOLECULE
*****
 32 35 0 0 0
SMALL
GASTEIGER

@<TRIPOS>ATOM
      1 C         142.4099  142.5735  163.7353 C.2     1  UNL1        0.1397
      2 C         142.2452  142.4623  162.2485 C.2     1  UNL1        0.1355
      3 N         141.1504  141.6111  161.6768 N.pl3   1  UNL1       -0.2011
      4 C         140.2203  140.8711  162.5917 C.2     1  UNL1        0.3262
      5 N         140.3850  140.9823  164.0785 N.2     1  UNL1       -0.0595
      6 C         141.4798  141.8334  164.6503 C.3     1  UNL1        0.2691
      7 H         141.0423  141.5382  160.7009 H       1  UNL1        0.2982
      8 C         141.6445  141.9446  166.1371 C.ar    1  UNL1        0.0371
      9 C         142.7140  141.1570  166.8342 C.ar    1  UNL1        0.0030
     10 C         142.8787  141.2681  168.3209 C.ar    1  UNL1        0.0295
     11 C         141.9738  142.1668  169.1107 C.ar    1  UNL1        0.1406
     12 F         142.1385  142.2779  170.5974 F       1  UNL1       -0.2042
     13 C         140.9043  142.9544  168.4136 C.ar    1  UNL1        0.0362
     14 C         140.7397  142.8432  166.9268 C.ar    1  UNL1        0.0372
     15 BR        139.6702  143.6308  166.2297 Br      1  UNL1       -0.0491
     16 C         139.1255  140.0199  162.0200 C.ar    1  UNL1        0.1115
     17 C         138.1197  140.4494  160.9934 C.ar    1  UNL1        0.0144
     18 C         137.2169  139.2847  160.7133 C.ar    1  UNL1        0.0077
     19 C         137.6647  138.1354  161.5668 C.ar    1  UNL1        0.0357
     20 S         138.8443  138.5898  162.3744 S.2     1  UNL1       -0.0792
     21 C         143.5047  143.4246  164.3070 C.2     1  UNL1        0.3447
     22 O         143.3324  144.9124  164.3897 O.2     1  UNL1       -0.2450
     23 O         144.7717  142.7881  164.7962 O.3     1  UNL1       -0.4455
     24 C         145.1749  140.3274  164.0662 C.3     1  UNL1        0.0513
     25 C         145.4889  141.7886  163.9378 C.3     1  UNL1        0.2089
     26 C         143.1753  143.2024  161.3335 C.3     1  UNL1        0.1405
     27 N         142.6552  143.8036  160.0615 N.3     1  UNL1       -0.2617
     28 C         143.2460  143.3981  158.7438 C.3     1  UNL1        0.1050
     29 C         142.7258  143.9994  157.4717 C.3     1  UNL1        0.1595
     30 O         141.6148  145.0061  157.5175 O.3     1  UNL1       -0.3508
     31 C         141.0239  145.4115  158.8353 C.3     1  UNL1        0.1595
     32 C         141.5441  144.8103  160.1073 C.3     1  UNL1        0.1050
@<TRIPOS>BOND
     1    24    25    1
     2    25    23    1
     3    23    21    1
     4    21    22    2
     5    21     1    1
     6     1     2    2
     7     2    26    1
     8    26    27    1
     9    27    28    1
    10    28    29    1
    11    29    30    1
    12    30    31    1
    13    31    32    1
    14     2     3    1
    15     3     4    1
    16     4    16    1
    17    16    17   ar
    18    17    18   ar
    19    18    19   ar
    20    19    20   ar
    21     4     5    2
    22     5     6    1
    23     6     8    1
    24     8     9   ar
    25     9    10   ar
    26    10    11   ar
    27    11    12    1
    28    11    13   ar
    29    13    14   ar
    30    14    15    1
    31     6     1    1
    32    14     8   ar
    33    32    27    1
    34    20    16   ar
    35     3     7    1
@<TRIPOS>MOLECULE
*****
 32 35 0 0 0
SMALL
GASTEIGER

@<TRIPOS>ATOM
      1 C         140.0362  142.8515  160.1156 C.2     1  UNL1        0.1397
      2 C         139.1822  142.5888  158.9108 C.2     1  UNL1        0.1355
      3 N         139.2128  143.5367  157.7487 N.pl3   1  UNL1       -0.2011
      4 C         140.0974  144.7473  157.7913 C.2     1  UNL1        0.3262
      5 N         140.9515  145.0100  158.9961 N.2     1  UNL1       -0.0595
      6 C         140.9209  144.0621  160.1583 C.3     1  UNL1        0.2691
      7 H         138.6522  143.3643  156.9580 H       1  UNL1        0.2982
      8 C         141.7750  144.3248  161.3631 C.ar    1  UNL1        0.0371
      9 C         141.2548  145.1821  162.4787 C.ar    1  UNL1        0.0030
     10 C         142.1088  145.4449  163.6834 C.ar    1  UNL1        0.0295
     11 C         143.4832  144.8503  163.7727 C.ar    1  UNL1        0.1406
     12 F         144.3372  145.1131  164.9775 F       1  UNL1       -0.2042
     13 C         144.0033  143.9931  162.6571 C.ar    1  UNL1        0.0362
     14 C         143.1492  143.7303  161.4523 C.ar    1  UNL1        0.0372
     15 BR        143.6694  142.8730  160.3367 Br      1  UNL1       -0.0491
     16 C         140.1280  145.6952  156.6292 C.ar    1  UNL1        0.1115
     17 C         139.3112  146.9455  156.4895 C.ar    1  UNL1        0.0144
     18 C         139.6591  147.5822  155.1767 C.ar    1  UNL1        0.0077
     19 C         140.6910  146.7255  154.5050 C.ar    1  UNL1        0.0357
     20 S         140.9808  145.5592  155.4027 S.2     1  UNL1       -0.0792
     21 C         140.0057  141.9036  161.2778 C.2     1  UNL1        0.3447
     22 O         140.7403  140.5982  161.2004 O.2     1  UNL1       -0.2450
     23 O         139.2404  142.2612  162.5173 O.3     1  UNL1       -0.4455
     24 C         137.6703  144.1280  163.4117 C.3     1  UNL1        0.0513
     25 C         137.9688  143.0498  162.4124 C.3     1  UNL1        0.2089
     26 C         138.2975  141.3782  158.8682 C.3     1  UNL1        0.1405
     27 N         138.3229  140.4725  157.6728 N.3     1  UNL1       -0.2617
     28 C         137.3597  140.6929  156.5442 C.3     1  UNL1        0.1050
     29 C         137.3851  139.7872  155.3487 C.3     1  UNL1        0.1595
     30 O         138.3737  138.6610  155.2819 O.3     1  UNL1       -0.3508
     31 C         139.3369  138.4406  156.4105 C.3     1  UNL1        0.1595
     32 C         139.3115  139.3463  157.6059 C.3     1  UNL1        0.1050
@<TRIPOS>BOND
     1    24    25    1
     2    25    23    1
     3    23    21    1
     4    21    22    2
     5    21     1    1
     6     1     2    2
     7     2    26    1
     8    26    27    1
     9    27    28    1
    10    28    29    1
    11    29    30    1
    12    30    31    1
    13    31    32    1
    14     2     3    1
    15     3     4    1
    16     4    16    1
    17    16    17   ar
    18    17    18   ar
    19    18    19   ar
    20    19    20   ar
    21     4     5    2
    22     5     6    1
    23     6     8    1
    24     8     9   ar
    25     9    10   ar
    26    10    11   ar
    27    11    12    1
    28    11    13   ar
    29    13    14   ar
    30    14    15    1
    31     6     1    1
    32    14     8   ar
    33    32    27    1
    34    20    16   ar
    35     3     7    1
@<TRIPOS>MOLECULE
*****
 32 35 0 0 0
SMALL
GASTEIGER

@<TRIPOS>ATOM
      1 C         142.2686  142.7332  160.8692 C.2     1  UNL1        0.1397
      2 C         142.2917  143.6623  159.6918 C.2     1  UNL1        0.1355
      3 N         143.3573  143.5210  158.6456 N.pl3   1  UNL1       -0.2011
      4 C         144.3998  142.4506  158.7768 C.2     1  UNL1        0.3262
      5 N         144.3768  141.5215  159.9541 N.2     1  UNL1       -0.0595
      6 C         143.3112  141.6628  161.0003 C.3     1  UNL1        0.2691
      7 H         143.3724  144.1309  157.8729 H       1  UNL1        0.2982
      8 C         143.2882  140.7335  162.1776 C.ar    1  UNL1        0.0371
      9 C         142.4615  139.4828  162.1299 C.ar    1  UNL1        0.0030
     10 C         142.4385  138.5536  163.3072 C.ar    1  UNL1        0.0295
     11 C         143.2421  138.8751  164.5323 C.ar    1  UNL1        0.1406
     12 F         143.2191  137.9459  165.7095 F       1  UNL1       -0.2042
     13 C         144.0688  140.1259  164.5800 C.ar    1  UNL1        0.0362
     14 C         144.0918  141.0551  163.4027 C.ar    1  UNL1        0.0372
     15 BR        144.9185  142.3058  163.4504 Br      1  UNL1       -0.0491
     16 C         145.4654  142.3093  157.7305 C.ar    1  UNL1        0.1115
     17 C         146.8147  142.9642  157.7523 C.ar    1  UNL1        0.0144
     18 C         147.5521  142.5480  156.5141 C.ar    1  UNL1        0.0077
     19 C         146.6584  141.6359  155.7271 C.ar    1  UNL1        0.0357
     20 S         145.3688  141.4884  156.4789 S.2     1  UNL1       -0.0792
     21 C         141.2030  142.8745  161.9154 C.2     1  UNL1        0.3447
     22 O         141.4457  143.7317  163.1221 O.2     1  UNL1       -0.2450
     23 O         139.8948  142.1585  161.7549 O.3     1  UNL1       -0.4455
     24 C         137.8807  143.5063  162.6916 C.3     1  UNL1        0.0513
     25 C         138.6353  142.9402  161.5252 C.3     1  UNL1        0.2089
     26 C         141.2491  144.7328  159.5607 C.3     1  UNL1        0.1405
     27 N         140.4205  144.8240  158.3137 N.3     1  UNL1       -0.2617
     28 C         139.6377  143.6335  157.8447 C.3     1  UNL1        0.1050
     29 C         138.8090  143.7247  156.5976 C.3     1  UNL1        0.1595
     30 O         138.7632  145.0063  155.8197 O.3     1  UNL1       -0.3508
     31 C         139.5460  146.1968  156.2887 C.3     1  UNL1        0.1595
     32 C         140.3746  146.1056  157.5356 C.3     1  UNL1        0.1050
@<TRIPOS>BOND
     1    24    25    1
     2    25    23    1
     3    23    21    1
     4    21    22    2
     5    21     1    1
     6     1     2    2
     7     2    26    1
     8    26    27    1
     9    27    28    1
    10    28    29    1
    11    29    30    1
    12    30    31    1
    13    31    32    1
    14     2     3    1
    15     3     4    1
    16     4    16    1
    17    16    17   ar
    18    17    18   ar
    19    18    19   ar
    20    19    20   ar
    21     4     5    2
    22     5     6    1
    23     6     8    1
    24     8     9   ar
    25     9    10   ar
    26    10    11   ar
    27    11    12    1
    28    11    13   ar
    29    13    14   ar
    30    14    15    1
    31     6     1    1
    32    14     8   ar
    33    32    27    1
    34    20    16   ar
    35     3     7    1
