@<TRIPOS>MOLECULE
*****
 23 25 0 0 0
SMALL
GASTEIGER

@<TRIPOS>ATOM
      1 C         142.7615  142.4475  165.5715 C.2     1  UNL1       -0.0238
      2 C         143.8044  143.0216  164.6589 C.2     1  UNL1       -0.0420
      3 C         143.1521  144.0762  163.8150 C.3     1  UNL1        0.0480
      4 C         141.7060  144.1539  164.2060 C.ar    1  UNL1       -0.0184
      5 C         140.5778  145.0112  163.7137 C.ar    1  UNL1       -0.0040
      6 C         139.2083  144.8619  164.3071 C.ar    1  UNL1       -0.0003
      7 C         138.9670  143.8553  165.3927 C.ar    1  UNL1       -0.0000
      8 C         140.0951  142.9980  165.8849 C.ar    1  UNL1       -0.0006
      9 C         141.4646  143.1473  165.2915 C.ar    1  UNL1       -0.0078
     10 C         142.9776  141.3639  166.5859 C.3     1  UNL1        0.0763
     11 C         141.5233  140.8567  168.6782 C.ar    1  UNL1        0.2393
     12 N         141.1918  141.1024  170.1203 N.ar    1  UNL1       -0.2075
     13 C         141.9829  142.1008  170.9122 C.ar    1  UNL1        0.1227
     14 C         143.1056  142.8537  170.2621 C.ar    1  UNL1        0.1193
     15 N         143.4372  142.6080  168.8199 N.ar    1  UNL1       -0.2415
     16 C         142.6460  141.6095  168.0279 C.ar    1  UNL1        0.1163
     17 C         139.2336  139.8665  167.9525 C.3     1  UNL1        0.2543
     18 O         140.7321  139.8583  167.8863 O.3     1  UNL1       -0.4553
     19 C         145.2465  142.6129  164.6005 C.3     1  UNL1        0.0394
     20 C         145.7287  141.7195  163.4964 C.3     1  UNL1        0.0765
     21 N         144.9378  140.5028  163.1165 N.3     1  UNL1       -0.2700
     22 C         144.2757  140.4281  161.7726 C.3     1  UNL1        0.0897
     23 C         144.8090  139.3609  164.0806 C.3     1  UNL1        0.0897
@<TRIPOS>BOND
     1    17    18    1
     2    18    11    1
     3    11    12   ar
     4    12    13   ar
     5    13    14   ar
     6    14    15   ar
     7    15    16   ar
     8    16    10    1
     9    10     1    1
    10     1     2    2
    11     2    19    1
    12    19    20    1
    13    20    21    1
    14    21    22    1
    15    21    23    1
    16     2     3    1
    17     3     4    1
    18     4     5   ar
    19     5     6   ar
    20     6     7   ar
    21     7     8   ar
    22     8     9   ar
    23    16    11   ar
    24     9     1    1
    25     9     4   ar
@<TRIPOS>MOLECULE
*****
 23 25 0 0 0
SMALL
GASTEIGER

@<TRIPOS>ATOM
      1 C         139.6534  140.3738  165.5337 C.2     1  UNL1       -0.0238
      2 C         138.7849  139.5510  164.6289 C.2     1  UNL1       -0.0420
      3 C         137.9021  140.4865  163.8572 C.3     1  UNL1        0.0480
      4 C         138.2251  141.8874  164.2850 C.ar    1  UNL1       -0.0184
      5 C         137.6735  143.2175  163.8649 C.ar    1  UNL1       -0.0040
      6 C         138.2042  144.4779  164.4810 C.ar    1  UNL1       -0.0003
      7 C         139.2866  144.4083  165.5172 C.ar    1  UNL1       -0.0000
      8 C         139.8382  143.0782  165.9372 C.ar    1  UNL1       -0.0006
      9 C         139.3075  141.8178  165.3212 C.ar    1  UNL1       -0.0078
     10 C         140.6866  139.8453  166.4842 C.3     1  UNL1        0.0763
     11 C         141.7731  140.7688  168.6560 C.ar    1  UNL1        0.2393
     12 N         141.6823  141.0920  170.1179 N.ar    1  UNL1       -0.2075
     13 C         140.4145  140.8149  170.8701 C.ar    1  UNL1        0.1227
     14 C         139.2372  140.2146  170.1602 C.ar    1  UNL1        0.1193
     15 N         139.3280  139.8914  168.6983 N.ar    1  UNL1       -0.2415
     16 C         140.5959  140.1685  167.9461 C.ar    1  UNL1        0.1163
     17 C         143.2442  142.3759  167.2408 C.3     1  UNL1        0.2543
     18 O         143.0410  141.0459  167.9039 O.3     1  UNL1       -0.4553
     19 C         138.7969  138.0553  164.5158 C.3     1  UNL1        0.0394
     20 C         138.8422  137.4057  163.1645 C.3     1  UNL1        0.0765
     21 N         139.9410  137.7499  162.2033 N.3     1  UNL1       -0.2700
     22 C         141.3747  137.5925  162.6154 C.3     1  UNL1        0.0897
     23 C         139.6063  138.2516  160.8299 C.3     1  UNL1        0.0897
@<TRIPOS>BOND
     1    17    18    1
     2    18    11    1
     3    11    12   ar
     4    12    13   ar
     5    13    14   ar
     6    14    15   ar
     7    15    16   ar
     8    16    10    1
     9    10     1    1
    10     1     2    2
    11     2    19    1
    12    19    20    1
    13    20    21    1
    14    21    22    1
    15    21    23    1
    16     2     3    1
    17     3     4    1
    18     4     5   ar
    19     5     6   ar
    20     6     7   ar
    21     7     8   ar
    22     8     9   ar
    23    16    11   ar
    24     9     1    1
    25     9     4   ar
@<TRIPOS>MOLECULE
*****
 23 25 0 0 0
SMALL
GASTEIGER

@<TRIPOS>ATOM
      1 C         140.3603  142.3314  164.9645 C.2     1  UNL1       -0.0238
      2 C         139.2439  143.1455  164.3807 C.2     1  UNL1       -0.0420
      3 C         139.8315  144.4120  163.8323 C.3     1  UNL1        0.0480
      4 C         141.3110  144.3807  164.0772 C.ar    1  UNL1       -0.0184
      5 C         142.4028  145.3569  163.7534 C.ar    1  UNL1       -0.0040
      6 C         143.8215  145.0472  164.1293 C.ar    1  UNL1       -0.0003
      7 C         144.1484  143.7613  164.8290 C.ar    1  UNL1       -0.0000
      8 C         143.0566  142.7851  165.1529 C.ar    1  UNL1       -0.0006
      9 C         141.6379  143.0948  164.7769 C.ar    1  UNL1       -0.0078
     10 C         140.2233  140.9896  165.6207 C.3     1  UNL1        0.0763
     11 C         139.0915  139.8020  167.6354 C.ar    1  UNL1        0.2393
     12 N         138.8285  139.7113  169.1093 N.ar    1  UNL1       -0.2075
     13 C         139.4343  140.7172  170.0426 C.ar    1  UNL1        0.1227
     14 C         140.3032  141.8140  169.5020 C.ar    1  UNL1        0.1193
     15 N         140.5661  141.9047  168.0280 N.ar    1  UNL1       -0.2415
     16 C         139.9603  140.8988  167.0946 C.ar    1  UNL1        0.1163
     17 C         137.3253  137.9589  167.1524 C.3     1  UNL1        0.2543
     18 O         138.4857  138.7961  166.7021 O.3     1  UNL1       -0.4553
     19 C         137.7944  142.7607  164.3507 C.3     1  UNL1        0.0394
     20 C         137.2902  141.8187  163.2979 C.3     1  UNL1        0.0765
     21 N         138.1435  141.4996  162.1062 N.3     1  UNL1       -0.2700
     22 C         138.9017  140.2064  162.0514 C.3     1  UNL1        0.0897
     23 C         138.2385  142.4735  160.9694 C.3     1  UNL1        0.0897
@<TRIPOS>BOND
     1    17    18    1
     2    18    11    1
     3    11    12   ar
     4    12    13   ar
     5    13    14   ar
     6    14    15   ar
     7    15    16   ar
     8    16    10    1
     9    10     1    1
    10     1     2    2
    11     2    19    1
    12    19    20    1
    13    20    21    1
    14    21    22    1
    15    21    23    1
    16     2     3    1
    17     3     4    1
    18     4     5   ar
    19     5     6   ar
    20     6     7   ar
    21     7     8   ar
    22     8     9   ar
    23    16    11   ar
    24     9     1    1
    25     9     4   ar
@<TRIPOS>MOLECULE
*****
 23 25 0 0 0
SMALL
GASTEIGER

@<TRIPOS>ATOM
      1 C         139.9063  140.8042  166.2957 C.2     1  UNL1       -0.0238
      2 C         138.9759  139.6559  166.5521 C.2     1  UNL1       -0.0420
      3 C         138.7463  139.5669  168.0318 C.3     1  UNL1        0.0480
      4 C         139.5349  140.6602  168.6898 C.ar    1  UNL1       -0.0184
      5 C         139.6927  141.0582  170.1274 C.ar    1  UNL1       -0.0040
      6 C         140.5675  142.2208  170.4919 C.ar    1  UNL1       -0.0003
      7 C         141.2844  142.9855  169.4189 C.ar    1  UNL1       -0.0000
      8 C         141.1266  142.5875  167.9814 C.ar    1  UNL1       -0.0006
      9 C         140.2518  141.4249  167.6168 C.ar    1  UNL1       -0.0078
     10 C         140.4039  141.2530  164.9537 C.3     1  UNL1        0.0763
     11 C         140.5158  143.7048  164.1015 C.ar    1  UNL1        0.2393
     12 N         139.8710  144.8719  163.4144 N.ar    1  UNL1       -0.2075
     13 C         138.4697  144.7544  162.8923 C.ar    1  UNL1        0.1227
     14 C         137.7131  143.4697  163.0574 C.ar    1  UNL1        0.1193
     15 N         138.3579  142.3026  163.7445 N.ar    1  UNL1       -0.2415
     16 C         139.7592  142.4201  164.2666 C.ar    1  UNL1        0.1163
     17 C         142.8925  144.7435  163.9527 C.3     1  UNL1        0.2543
     18 O         141.9170  143.8224  164.6235 O.3     1  UNL1       -0.4553
     19 C         138.3797  138.7548  165.5116 C.3     1  UNL1        0.0394
     20 C         139.1760  137.6049  164.9699 C.3     1  UNL1        0.0765
     21 N         139.6556  137.6282  163.5488 N.3     1  UNL1       -0.2700
     22 C         141.0888  137.3149  163.2357 C.3     1  UNL1        0.0897
     23 C         138.7021  137.9646  162.4409 C.3     1  UNL1        0.0897
@<TRIPOS>BOND
     1    17    18    1
     2    18    11    1
     3    11    12   ar
     4    12    13   ar
     5    13    14   ar
     6    14    15   ar
     7    15    16   ar
     8    16    10    1
     9    10     1    1
    10     1     2    2
    11     2    19    1
    12    19    20    1
    13    20    21    1
    14    21    22    1
    15    21    23    1
    16     2     3    1
    17     3     4    1
    18     4     5   ar
    19     5     6   ar
    20     6     7   ar
    21     7     8   ar
    22     8     9   ar
    23    16    11   ar
    24     9     1    1
    25     9     4   ar
@<TRIPOS>MOLECULE
*****
 23 25 0 0 0
SMALL
GASTEIGER

@<TRIPOS>ATOM
      1 C         140.9071  142.1489  166.0932 C.2     1  UNL1       -0.0238
      2 C         142.1153  141.4766  165.5117 C.2     1  UNL1       -0.0420
      3 C         143.1757  141.4315  166.5715 C.3     1  UNL1        0.0480
      4 C         142.6229  142.0759  167.8082 C.ar    1  UNL1       -0.0184
      5 C         143.2152  142.3162  169.1651 C.ar    1  UNL1       -0.0040
      6 C         142.4052  142.9999  170.2265 C.ar    1  UNL1       -0.0003
      7 C         141.0031  143.4433  169.9309 C.ar    1  UNL1       -0.0000
      8 C         140.4109  143.2030  168.5739 C.ar    1  UNL1       -0.0006
      9 C         141.2208  142.5193  167.5125 C.ar    1  UNL1       -0.0078
     10 C         139.6124  142.4058  165.3806 C.3     1  UNL1        0.0763
     11 C         138.4129  143.4110  163.3068 C.ar    1  UNL1        0.2393
     12 N         138.3495  144.4349  162.2125 N.ar    1  UNL1       -0.2075
     13 C         139.4218  145.4774  162.0976 C.ar    1  UNL1        0.1227
     14 C         140.5577  145.4961  163.0770 C.ar    1  UNL1        0.1193
     15 N         140.6212  144.4722  164.1714 N.ar    1  UNL1       -0.2415
     16 C         139.5488  143.4296  164.2863 C.ar    1  UNL1        0.1163
     17 C         137.4611  141.0816  162.6606 C.3     1  UNL1        0.2543
     18 O         137.3405  142.3686  163.4216 O.3     1  UNL1       -0.4553
     19 C         142.2410  140.9432  164.1154 C.3     1  UNL1        0.0394
     20 C         142.8862  141.7776  163.0489 C.3     1  UNL1        0.0765
     21 N         144.1551  142.5212  163.3437 N.3     1  UNL1       -0.2700
     22 C         145.4579  141.7814  163.4186 C.3     1  UNL1        0.0897
     23 C         144.1214  144.0046  163.5634 C.3     1  UNL1        0.0897
@<TRIPOS>BOND
     1    17    18    1
     2    18    11    1
     3    11    12   ar
     4    12    13   ar
     5    13    14   ar
     6    14    15   ar
     7    15    16   ar
     8    16    10    1
     9    10     1    1
    10     1     2    2
    11     2    19    1
    12    19    20    1
    13    20    21    1
    14    21    22    1
    15    21    23    1
    16     2     3    1
    17     3     4    1
    18     4     5   ar
    19     5     6   ar
    20     6     7   ar
    21     7     8   ar
    22     8     9   ar
    23    16    11   ar
    24     9     1    1
    25     9     4   ar
@<TRIPOS>MOLECULE
*****
 23 25 0 0 0
SMALL
GASTEIGER

@<TRIPOS>ATOM
      1 C         141.6254  142.0301  165.1121 C.2     1  UNL1       -0.0238
      2 C         142.1545  143.2696  164.4535 C.2     1  UNL1       -0.0420
      3 C         143.5453  142.9807  163.9716 C.3     1  UNL1        0.0480
      4 C         143.8757  141.5627  164.3322 C.ar    1  UNL1       -0.0184
      5 C         145.1038  140.7306  164.1099 C.ar    1  UNL1       -0.0040
      6 C         145.1452  139.3110  164.5924 C.ar    1  UNL1       -0.0003
      7 C         143.9587  138.7235  165.2973 C.ar    1  UNL1       -0.0000
      8 C         142.7307  139.5556  165.5197 C.ar    1  UNL1       -0.0006
      9 C         142.6892  140.9752  165.0372 C.ar    1  UNL1       -0.0078
     10 C         140.2705  141.8731  165.7361 C.3     1  UNL1        0.0763
     11 C         139.6262  140.2529  167.6622 C.ar    1  UNL1        0.2393
     12 N         139.5050  139.9613  169.1286 N.ar    1  UNL1       -0.2075
     13 C         139.9068  140.9982  170.1352 C.ar    1  UNL1        0.1227
     14 C         140.4298  142.3268  169.6755 C.ar    1  UNL1        0.1193
     15 N         140.5510  142.6184  168.2091 N.ar    1  UNL1       -0.2415
     16 C         140.1492  141.5815  167.2024 C.ar    1  UNL1        0.1163
     17 C         137.8543  138.6079  166.7112 C.3     1  UNL1        0.2543
     18 O         139.2244  139.2159  166.6556 O.3     1  UNL1       -0.4553
     19 C         141.4216  144.5697  164.3033 C.3     1  UNL1        0.0394
     20 C         140.2374  144.6616  163.3872 C.3     1  UNL1        0.0765
     21 N         138.8480  144.6016  163.9491 N.3     1  UNL1       -0.2700
     22 C         137.7023  144.1871  163.0740 C.3     1  UNL1        0.0897
     23 C         138.6041  144.9560  165.3861 C.3     1  UNL1        0.0897
@<TRIPOS>BOND
     1    17    18    1
     2    18    11    1
     3    11    12   ar
     4    12    13   ar
     5    13    14   ar
     6    14    15   ar
     7    15    16   ar
     8    16    10    1
     9    10     1    1
    10     1     2    2
    11     2    19    1
    12    19    20    1
    13    20    21    1
    14    21    22    1
    15    21    23    1
    16     2     3    1
    17     3     4    1
    18     4     5   ar
    19     5     6   ar
    20     6     7   ar
    21     7     8   ar
    22     8     9   ar
    23    16    11   ar
    24     9     1    1
    25     9     4   ar
@<TRIPOS>MOLECULE
*****
 23 25 0 0 0
SMALL
GASTEIGER

@<TRIPOS>ATOM
      1 C         140.5805  142.3183  165.1878 C.2     1  UNL1       -0.0238
      2 C         139.4291  143.0439  164.5570 C.2     1  UNL1       -0.0420
      3 C         139.9600  144.2981  163.9285 C.3     1  UNL1        0.0480
      4 C         141.4395  144.3477  164.1708 C.ar    1  UNL1       -0.0184
      5 C         142.4870  145.3489  163.7833 C.ar    1  UNL1       -0.0040
      6 C         143.9180  145.1265  164.1740 C.ar    1  UNL1       -0.0003
      7 C         144.3015  143.9029  164.9523 C.ar    1  UNL1       -0.0000
      8 C         143.2540  142.9017  165.3398 C.ar    1  UNL1       -0.0006
      9 C         141.8230  143.1241  164.9490 C.ar    1  UNL1       -0.0078
     10 C         140.5031  141.0156  165.9274 C.3     1  UNL1        0.0763
     11 C         139.4801  138.7949  165.0488 C.ar    1  UNL1        0.2393
     12 N         139.6293  137.5005  164.3057 N.ar    1  UNL1       -0.2075
     13 C         140.9503  137.1323  163.6981 C.ar    1  UNL1        0.1227
     14 C         142.1224  138.0586  163.8336 C.ar    1  UNL1        0.1193
     15 N         141.9733  139.3530  164.5767 N.ar    1  UNL1       -0.2415
     16 C         140.6521  139.7212  165.1843 C.ar    1  UNL1        0.1163
     17 C         137.7041  138.4981  166.9216 C.3     1  UNL1        0.2543
     18 O         138.1590  139.1630  165.6563 O.3     1  UNL1       -0.4553
     19 C         137.9981  142.5942  164.5552 C.3     1  UNL1        0.0394
     20 C         137.2251  142.5577  163.2703 C.3     1  UNL1        0.0765
     21 N         137.7460  141.7718  162.1037 N.3     1  UNL1       -0.2700
     22 C         137.7186  140.2723  162.1373 C.3     1  UNL1        0.0897
     23 C         138.2942  142.4851  160.9035 C.3     1  UNL1        0.0897
@<TRIPOS>BOND
     1    17    18    1
     2    18    11    1
     3    11    12   ar
     4    12    13   ar
     5    13    14   ar
     6    14    15   ar
     7    15    16   ar
     8    16    10    1
     9    10     1    1
    10     1     2    2
    11     2    19    1
    12    19    20    1
    13    20    21    1
    14    21    22    1
    15    21    23    1
    16     2     3    1
    17     3     4    1
    18     4     5   ar
    19     5     6   ar
    20     6     7   ar
    21     7     8   ar
    22     8     9   ar
    23    16    11   ar
    24     9     1    1
    25     9     4   ar
@<TRIPOS>MOLECULE
*****
 23 25 0 0 0
SMALL
GASTEIGER

@<TRIPOS>ATOM
      1 C         140.1365  140.6643  165.7174 C.2     1  UNL1       -0.0238
      2 C         140.9441  141.2664  166.8288 C.2     1  UNL1       -0.0420
      3 C         140.6371  142.7337  166.8825 C.3     1  UNL1        0.0480
      4 C         139.6398  143.0384  165.8043 C.ar    1  UNL1       -0.0184
      5 C         138.9734  144.3152  165.3851 C.ar    1  UNL1       -0.0040
      6 C         137.9976  144.3130  164.2459 C.ar    1  UNL1       -0.0003
      7 C         137.6883  143.0340  163.5258 C.ar    1  UNL1       -0.0000
      8 C         138.3546  141.7572  163.9450 C.ar    1  UNL1       -0.0006
      9 C         139.3304  141.7594  165.0842 C.ar    1  UNL1       -0.0078
     10 C         140.1352  139.2205  165.3106 C.3     1  UNL1        0.0763
     11 C         140.4061  137.9671  163.0511 C.ar    1  UNL1        0.2393
     12 N         141.2730  137.5067  161.9168 N.ar    1  UNL1       -0.2075
     13 C         142.7356  137.8393  161.9077 C.ar    1  UNL1        0.1227
     14 C         143.3315  138.6323  163.0329 C.ar    1  UNL1        0.1193
     15 N         142.4646  139.0927  164.1672 N.ar    1  UNL1       -0.2415
     16 C         141.0019  138.7601  164.1763 C.ar    1  UNL1        0.1163
     17 C         138.0262  138.2587  162.0506 C.3     1  UNL1        0.2543
     18 O         138.9435  137.6346  163.0601 O.3     1  UNL1       -0.4553
     19 C         141.8922  140.5305  167.7286 C.3     1  UNL1        0.0394
     20 C         141.3816  139.8634  168.9712 C.3     1  UNL1        0.0765
     21 N         140.5290  140.6304  169.9380 N.3     1  UNL1       -0.2700
     22 C         141.1676  141.5585  170.9286 C.3     1  UNL1        0.0897
     23 C         139.0379  140.4695  169.9143 C.3     1  UNL1        0.0897
@<TRIPOS>BOND
     1    17    18    1
     2    18    11    1
     3    11    12   ar
     4    12    13   ar
     5    13    14   ar
     6    14    15   ar
     7    15    16   ar
     8    16    10    1
     9    10     1    1
    10     1     2    2
    11     2    19    1
    12    19    20    1
    13    20    21    1
    14    21    22    1
    15    21    23    1
    16     2     3    1
    17     3     4    1
    18     4     5   ar
    19     5     6   ar
    20     6     7   ar
    21     7     8   ar
    22     8     9   ar
    23    16    11   ar
    24     9     1    1
    25     9     4   ar
@<TRIPOS>MOLECULE
*****
 23 25 0 0 0
SMALL
GASTEIGER

@<TRIPOS>ATOM
      1 C         141.0825  141.8312  166.1672 C.2     1  UNL1       -0.0238
      2 C         140.7849  140.4493  165.6654 C.2     1  UNL1       -0.0420
      3 C         140.1062  139.6920  166.7681 C.3     1  UNL1        0.0480
      4 C         139.9843  140.6059  167.9513 C.ar    1  UNL1       -0.0184
      5 C         139.4018  140.4050  169.3189 C.ar    1  UNL1       -0.0040
      6 C         139.4228  141.5261  170.3151 C.ar    1  UNL1       -0.0003
      7 C         140.0262  142.8482  169.9437 C.ar    1  UNL1       -0.0000
      8 C         140.6087  143.0492  168.5762 C.ar    1  UNL1       -0.0006
      9 C         140.5877  141.9280  167.5800 C.ar    1  UNL1       -0.0078
     10 C         141.7566  142.9245  165.3923 C.3     1  UNL1        0.0763
     11 C         141.6460  144.8300  163.6298 C.ar    1  UNL1        0.2393
     12 N         140.8542  145.6656  162.6681 N.ar    1  UNL1       -0.2075
     13 C         139.3815  145.4312  162.5071 C.ar    1  UNL1        0.1227
     14 C         138.7003  144.3612  163.3079 C.ar    1  UNL1        0.1193
     15 N         139.4921  143.5257  164.2696 N.ar    1  UNL1       -0.2415
     16 C         140.9649  143.7600  164.4306 C.ar    1  UNL1        0.1163
     17 C         144.0867  144.4432  162.8278 C.3     1  UNL1        0.2543
     18 O         143.1188  145.0645  163.7907 O.3     1  UNL1       -0.4553
     19 C         141.1092  139.9180  164.3007 C.3     1  UNL1        0.0394
     20 C         142.1577  138.8578  164.1382 C.3     1  UNL1        0.0765
     21 N         143.4577  138.9689  164.8784 N.3     1  UNL1       -0.2700
     22 C         143.6311  138.2765  166.1977 C.3     1  UNL1        0.0897
     23 C         144.5841  139.7725  164.2993 C.3     1  UNL1        0.0897
@<TRIPOS>BOND
     1    17    18    1
     2    18    11    1
     3    11    12   ar
     4    12    13   ar
     5    13    14   ar
     6    14    15   ar
     7    15    16   ar
     8    16    10    1
     9    10     1    1
    10     1     2    2
    11     2    19    1
    12    19    20    1
    13    20    21    1
    14    21    22    1
    15    21    23    1
    16     2     3    1
    17     3     4    1
    18     4     5   ar
    19     5     6   ar
    20     6     7   ar
    21     7     8   ar
    22     8     9   ar
    23    16    11   ar
    24     9     1    1
    25     9     4   ar
