@<TRIPOS>MOLECULE
*****
 39 43 0 0 0
SMALL
GASTEIGER

@<TRIPOS>ATOM
      1 N         140.4658  140.3274  164.8599 N.ar    1  UNL1       -0.2986
      2 C         141.8640  140.2735  165.4003 C.ar    1  UNL1        0.1245
      3 C         142.7742  139.8417  164.2889 C.ar    1  UNL1        0.1157
      4 C         141.9384  139.6288  163.0617 C.ar    1  UNL1        0.0967
      5 C         140.5118  139.9290  163.4146 C.ar    1  UNL1        0.1354
      6 C         139.4389  139.8007  162.3742 C.ar    1  UNL1        0.2819
      7 O         138.0122  140.1008  162.7270 O.2     1  UNL1       -0.2652
      8 N         139.7926  139.3722  160.9809 N.ar    1  UNL1       -0.2400
      9 C         141.2193  139.0721  160.6279 C.ar    1  UNL1        0.3343
     10 O         141.5730  138.6436  159.2347 O.2     1  UNL1       -0.2462
     11 N         142.2922  139.2003  161.6683 N.ar    1  UNL1       -0.2770
     12 C         143.7188  138.9002  161.3155 C.3     1  UNL1        0.1351
     13 N         142.2793  140.5949  166.8054 N.pl3   1  UNL1       -0.2926
     14 C         142.6601  141.9985  167.1725 C.3     1  UNL1        0.0922
     15 C         143.0753  142.3199  168.5775 C.3     1  UNL1        0.0229
     16 C         143.1097  141.2376  169.6156 C.3     1  UNL1        0.0190
     17 C         142.7289  139.8340  169.2486 C.3     1  UNL1        0.0709
     18 N         142.7633  138.7518  170.2866 N.3     1  UNL1       -0.3208
     19 C         142.3137  139.5127  167.8435 C.3     1  UNL1        0.1075
     20 H         143.0657  139.1450  171.1778 H       1  UNL1        0.1189
     21 H         143.4163  138.0236  169.9971 H       1  UNL1        0.1189
     22 C         144.2593  139.6556  164.3874 C.1     1  UNL1        0.1047
     23 N         145.7445  139.4694  164.4859 N.1     1  UNL1       -0.1907
     24 C         139.2373  140.7122  165.6297 C.3     1  UNL1        0.1842
     25 C         136.8239  137.5547  167.7406 C.3     1  UNL1        0.0900
     26 C         137.6283  138.6072  167.0370 C.1     1  UNL1       -0.0881
     27 C         138.4328  139.6597  166.3333 C.1     1  UNL1       -0.0656
     28 C         138.7197  139.2440  159.9405 C.3     1  UNL1        0.1791
     29 C         138.4763  140.3634  158.9721 C.ar    1  UNL1        0.1617
     30 N         139.2814  141.6255  159.0671 N.ar    1  UNL1       -0.2330
     31 C         139.0381  142.7449  158.0988 C.ar    1  UNL1        0.0622
     32 C         139.8431  144.0070  158.1937 C.3     1  UNL1        0.0522
     33 C         137.9897  142.6023  157.0354 C.ar    1  UNL1        0.0313
     34 C         137.7463  143.7217  156.0671 C.ar    1  UNL1        0.0027
     35 C         136.6980  143.5790  155.0039 C.ar    1  UNL1        0.0001
     36 C         135.8929  142.3169  154.9089 C.ar    1  UNL1        0.0015
     37 C         136.1362  141.1975  155.8773 C.ar    1  UNL1        0.0192
     38 C         137.1846  141.3402  156.9405 C.ar    1  UNL1        0.0838
     39 N         137.4280  140.2207  157.9089 N.ar    1  UNL1       -0.2287
@<TRIPOS>BOND
     1    25    26    1
     2    26    27    3
     3    27    24    1
     4    24     1    1
     5     1     2   ar
     6     2    13    1
     7    13    14    1
     8    14    15    1
     9    15    16    1
    10    16    17    1
    11    17    18    1
    12    17    19    1
    13     2     3   ar
    14     3    22    1
    15    22    23    3
    16     3     4   ar
    17     4     5   ar
    18     5     6   ar
    19     6     7    2
    20     6     8   ar
    21     8    28    1
    22    28    29    1
    23    29    30   ar
    24    30    31   ar
    25    31    32    1
    26    31    33   ar
    27    33    34   ar
    28    34    35   ar
    29    35    36   ar
    30    36    37   ar
    31    37    38   ar
    32    38    39   ar
    33     8     9   ar
    34     9    10    2
    35     9    11   ar
    36    11    12    1
    37     5     1   ar
    38    39    29   ar
    39    19    13    1
    40    11     4   ar
    41    38    33   ar
    42    18    20    1
    43    18    21    1
@<TRIPOS>MOLECULE
*****
 39 43 0 0 0
SMALL
GASTEIGER

@<TRIPOS>ATOM
      1 N         142.1705  140.8828  165.7682 N.ar    1  UNL1       -0.2986
      2 C         140.9833  140.6643  166.6586 C.ar    1  UNL1        0.1245
      3 C         140.0597  139.7022  165.9720 C.ar    1  UNL1        0.1157
      4 C         140.6761  139.3261  164.6573 C.ar    1  UNL1        0.0967
      5 C         141.9806  140.0557  164.5313 C.ar    1  UNL1        0.1354
      6 C         142.8271  139.8727  163.3065 C.ar    1  UNL1        0.2819
      7 O         144.1316  140.6023  163.1805 O.2     1  UNL1       -0.2652
      8 N         142.3690  138.9601  162.2078 N.ar    1  UNL1       -0.2400
      9 C         141.0644  138.2305  162.3337 C.ar    1  UNL1        0.3343
     10 O         140.6064  137.3179  161.2350 O.2     1  UNL1       -0.2462
     11 N         140.2180  138.4135  163.5585 N.ar    1  UNL1       -0.2770
     12 C         138.9135  137.6839  163.6845 C.3     1  UNL1        0.1351
     13 N         140.7590  141.2969  168.0002 N.pl3   1  UNL1       -0.2926
     14 C         140.5245  142.7748  168.1027 C.3     1  UNL1        0.0922
     15 C         140.3002  143.4073  169.4442 C.3     1  UNL1        0.0229
     16 C         140.3106  142.5618  170.6831 C.3     1  UNL1        0.0190
     17 C         140.5451  141.0838  170.5806 C.3     1  UNL1        0.0709
     18 N         140.5554  140.2384  171.8196 N.3     1  UNL1       -0.3208
     19 C         140.7694  140.4514  169.2391 C.3     1  UNL1        0.1075
     20 H         140.3880  140.8279  172.6349 H       1  UNL1        0.1189
     21 H         141.4624  139.7808  171.9114 H       1  UNL1        0.1189
     22 C         138.7497  139.2038  166.5063 C.1     1  UNL1        0.1047
     23 N         137.4397  138.7053  167.0407 N.1     1  UNL1       -0.1907
     24 C         143.3419  141.7721  166.0629 C.3     1  UNL1        0.1842
     25 C         143.9760  145.5265  163.6644 C.3     1  UNL1        0.0900
     26 C         143.7646  144.2751  164.4639 C.1     1  UNL1       -0.0881
     27 C         143.5532  143.0236  165.2634 C.1     1  UNL1       -0.0656
     28 C         143.2155  138.7771  160.9830 C.3     1  UNL1        0.1791
     29 C         143.2423  139.8395  159.9243 C.ar    1  UNL1        0.1617
     30 N         144.2017  139.7302  158.7764 N.ar    1  UNL1       -0.2330
     31 C         144.2286  140.7925  157.7177 C.ar    1  UNL1        0.0622
     32 C         145.1880  140.6833  156.5699 C.3     1  UNL1        0.0522
     33 C         143.2960  141.9640  157.8069 C.ar    1  UNL1        0.0313
     34 C         143.3229  143.0263  156.7482 C.ar    1  UNL1        0.0027
     35 C         142.3904  144.1978  156.8374 C.ar    1  UNL1        0.0001
     36 C         141.4310  144.3070  157.9852 C.ar    1  UNL1        0.0015
     37 C         141.4041  143.2447  159.0439 C.ar    1  UNL1        0.0192
     38 C         142.3366  142.0733  158.9547 C.ar    1  UNL1        0.0838
     39 N         142.3098  141.0109  160.0135 N.ar    1  UNL1       -0.2287
@<TRIPOS>BOND
     1    25    26    1
     2    26    27    3
     3    27    24    1
     4    24     1    1
     5     1     2   ar
     6     2    13    1
     7    13    14    1
     8    14    15    1
     9    15    16    1
    10    16    17    1
    11    17    18    1
    12    17    19    1
    13     2     3   ar
    14     3    22    1
    15    22    23    3
    16     3     4   ar
    17     4     5   ar
    18     5     6   ar
    19     6     7    2
    20     6     8   ar
    21     8    28    1
    22    28    29    1
    23    29    30   ar
    24    30    31   ar
    25    31    32    1
    26    31    33   ar
    27    33    34   ar
    28    34    35   ar
    29    35    36   ar
    30    36    37   ar
    31    37    38   ar
    32    38    39   ar
    33     8     9   ar
    34     9    10    2
    35     9    11   ar
    36    11    12    1
    37     5     1   ar
    38    39    29   ar
    39    19    13    1
    40    11     4   ar
    41    38    33   ar
    42    18    20    1
    43    18    21    1
@<TRIPOS>MOLECULE
*****
 39 43 0 0 0
SMALL
GASTEIGER

@<TRIPOS>ATOM
      1 N         142.0564  141.2760  165.1555 N.ar    1  UNL1       -0.2986
      2 C         140.9356  141.9609  165.8799 C.ar    1  UNL1        0.1245
      3 C         140.4851  143.1224  165.0445 C.ar    1  UNL1        0.1157
      4 C         141.3274  143.1553  163.8038 C.ar    1  UNL1        0.0967
      5 C         142.2986  142.0142  163.8724 C.ar    1  UNL1        0.1354
      6 C         143.2779  141.7947  162.7576 C.ar    1  UNL1        0.2819
      7 O         144.2490  140.6536  162.8262 O.2     1  UNL1       -0.2652
      8 N         143.2861  142.7163  161.5742 N.ar    1  UNL1       -0.2400
      9 C         142.3149  143.8575  161.5055 C.ar    1  UNL1        0.3343
     10 O         142.3232  144.7791  160.3221 O.2     1  UNL1       -0.2462
     11 N         141.3356  144.0770  162.6203 N.ar    1  UNL1       -0.2770
     12 C         140.3645  145.2181  162.5517 C.3     1  UNL1        0.1351
     13 N         140.3655  141.5555  167.2068 N.pl3   1  UNL1       -0.2926
     14 C         139.5146  140.3248  167.3131 C.3     1  UNL1        0.0922
     15 C         138.9444  139.9195  168.6399 C.3     1  UNL1        0.0229
     16 C         139.2252  140.7449  169.8606 C.3     1  UNL1        0.0190
     17 C         140.0761  141.9756  169.7543 C.3     1  UNL1        0.0709
     18 N         140.3569  142.8009  170.9750 N.3     1  UNL1       -0.3208
     19 C         140.6462  142.3809  168.4275 C.3     1  UNL1        0.1075
     20 H         139.8945  142.3824  171.7821 H       1  UNL1        0.1189
     21 H         140.0040  143.7475  170.8339 H       1  UNL1        0.1189
     22 C         139.3853  144.0824  165.3892 C.1     1  UNL1        0.1047
     23 N         138.2855  145.0425  165.7340 N.1     1  UNL1       -0.1907
     24 C         142.8038  140.0655  165.6308 C.3     1  UNL1        0.1842
     25 C         142.6565  138.8912  169.9724 C.3     1  UNL1        0.0900
     26 C         142.7056  139.2826  168.5253 C.1     1  UNL1       -0.0881
     27 C         142.7547  139.6740  167.0780 C.1     1  UNL1       -0.0656
     28 C         144.2654  142.4968  160.4594 C.3     1  UNL1        0.1791
     29 C         143.9581  141.5067  159.3752 C.ar    1  UNL1        0.1617
     30 N         142.7970  140.5687  159.5233 N.ar    1  UNL1       -0.2330
     31 C         142.4897  139.5786  158.4392 C.ar    1  UNL1        0.0622
     32 C         141.3286  138.6406  158.5873 C.3     1  UNL1        0.0522
     33 C         143.3435  139.5266  157.2070 C.ar    1  UNL1        0.0313
     34 C         143.0362  138.5365  156.1229 C.ar    1  UNL1        0.0027
     35 C         143.8899  138.4845  154.8907 C.ar    1  UNL1        0.0001
     36 C         145.0510  139.4226  154.7426 C.ar    1  UNL1        0.0015
     37 C         145.3584  140.4126  155.8267 C.ar    1  UNL1        0.0192
     38 C         144.5046  140.4646  157.0589 C.ar    1  UNL1        0.0838
     39 N         144.8119  141.4547  158.1431 N.ar    1  UNL1       -0.2287
@<TRIPOS>BOND
     1    25    26    1
     2    26    27    3
     3    27    24    1
     4    24     1    1
     5     1     2   ar
     6     2    13    1
     7    13    14    1
     8    14    15    1
     9    15    16    1
    10    16    17    1
    11    17    18    1
    12    17    19    1
    13     2     3   ar
    14     3    22    1
    15    22    23    3
    16     3     4   ar
    17     4     5   ar
    18     5     6   ar
    19     6     7    2
    20     6     8   ar
    21     8    28    1
    22    28    29    1
    23    29    30   ar
    24    30    31   ar
    25    31    32    1
    26    31    33   ar
    27    33    34   ar
    28    34    35   ar
    29    35    36   ar
    30    36    37   ar
    31    37    38   ar
    32    38    39   ar
    33     8     9   ar
    34     9    10    2
    35     9    11   ar
    36    11    12    1
    37     5     1   ar
    38    39    29   ar
    39    19    13    1
    40    11     4   ar
    41    38    33   ar
    42    18    20    1
    43    18    21    1
@<TRIPOS>MOLECULE
*****
 39 43 0 0 0
SMALL
GASTEIGER

@<TRIPOS>ATOM
      1 N         142.1683  140.8852  165.7705 N.ar    1  UNL1       -0.2986
      2 C         140.9829  140.6641  166.6625 C.ar    1  UNL1        0.1245
      3 C         140.0615  139.6983  165.9782 C.ar    1  UNL1        0.1157
      4 C         140.6776  139.3224  164.6633 C.ar    1  UNL1        0.0967
      5 C         141.9797  140.0559  164.5349 C.ar    1  UNL1        0.1354
      6 C         142.8253  139.8740  163.3094 C.ar    1  UNL1        0.2819
      7 O         144.1273  140.6075  163.1809 O.2     1  UNL1       -0.2652
      8 N         142.3688  138.9586  162.2123 N.ar    1  UNL1       -0.2400
      9 C         141.0667  138.2250  162.3407 C.ar    1  UNL1        0.3343
     10 O         140.6102  137.3096  161.2436 O.2     1  UNL1       -0.2462
     11 N         140.2211  138.4069  163.5662 N.ar    1  UNL1       -0.2770
     12 C         138.9190  137.6734  163.6946 C.3     1  UNL1        0.1351
     13 N         140.7582  141.2977  168.0035 N.pl3   1  UNL1       -0.2926
     14 C         140.5250  142.7760  168.1050 C.3     1  UNL1        0.0922
     15 C         140.3003  143.4095  169.4459 C.3     1  UNL1        0.0229
     16 C         140.3088  142.5647  170.6854 C.3     1  UNL1        0.0190
     17 C         140.5420  141.0865  170.5839 C.3     1  UNL1        0.0709
     18 N         140.5505  140.2417  171.8234 N.3     1  UNL1       -0.3208
     19 C         140.7667  140.4530  169.2430 C.3     1  UNL1        0.1075
     20 H         140.3829  140.8319  172.6383 H       1  UNL1        0.1189
     21 H         141.4569  139.7833  171.9162 H       1  UNL1        0.1189
     22 C         138.7537  139.1964  166.5147 C.1     1  UNL1        0.1047
     23 N         137.4458  138.6946  167.0512 N.1     1  UNL1       -0.1907
     24 C         143.3373  141.7785  166.0627 C.3     1  UNL1        0.1842
     25 C         143.9610  145.5280  163.6538 C.3     1  UNL1        0.0900
     26 C         143.7531  144.2782  164.4567 C.1     1  UNL1       -0.0881
     27 C         143.5452  143.0284  165.2597 C.1     1  UNL1       -0.0656
     28 C         143.2144  138.7766  160.9868 C.3     1  UNL1        0.1791
     29 C         143.1925  139.8105  159.9002 C.ar    1  UNL1        0.1617
     30 N         142.1987  140.9328  159.9528 N.ar    1  UNL1       -0.2330
     31 C         142.1767  141.9667  158.8662 C.ar    1  UNL1        0.0622
     32 C         141.1829  143.0890  158.9188 C.3     1  UNL1        0.0522
     33 C         143.1486  141.8783  157.7270 C.ar    1  UNL1        0.0313
     34 C         143.1267  142.9121  156.6405 C.ar    1  UNL1        0.0027
     35 C         144.0985  142.8237  155.5014 C.ar    1  UNL1        0.0001
     36 C         145.0923  141.7014  155.4488 C.ar    1  UNL1        0.0015
     37 C         145.1143  140.6675  156.5353 C.ar    1  UNL1        0.0192
     38 C         144.1424  140.7560  157.6745 C.ar    1  UNL1        0.0838
     39 N         144.1644  139.7221  158.7611 N.ar    1  UNL1       -0.2287
@<TRIPOS>BOND
     1    25    26    1
     2    26    27    3
     3    27    24    1
     4    24     1    1
     5     1     2   ar
     6     2    13    1
     7    13    14    1
     8    14    15    1
     9    15    16    1
    10    16    17    1
    11    17    18    1
    12    17    19    1
    13     2     3   ar
    14     3    22    1
    15    22    23    3
    16     3     4   ar
    17     4     5   ar
    18     5     6   ar
    19     6     7    2
    20     6     8   ar
    21     8    28    1
    22    28    29    1
    23    29    30   ar
    24    30    31   ar
    25    31    32    1
    26    31    33   ar
    27    33    34   ar
    28    34    35   ar
    29    35    36   ar
    30    36    37   ar
    31    37    38   ar
    32    38    39   ar
    33     8     9   ar
    34     9    10    2
    35     9    11   ar
    36    11    12    1
    37     5     1   ar
    38    39    29   ar
    39    19    13    1
    40    11     4   ar
    41    38    33   ar
    42    18    20    1
    43    18    21    1
@<TRIPOS>MOLECULE
*****
 39 43 0 0 0
SMALL
GASTEIGER

@<TRIPOS>ATOM
      1 N         141.1860  138.8651  162.4831 N.ar    1  UNL1       -0.2986
      2 C         140.1270  139.7479  163.0738 C.ar    1  UNL1        0.1245
      3 C         139.5652  140.5981  161.9731 C.ar    1  UNL1        0.1157
      4 C         140.2771  140.2407  160.7021 C.ar    1  UNL1        0.0967
      5 C         141.2788  139.1696  161.0173 C.ar    1  UNL1        0.1354
      6 C         142.1460  138.6099  159.9288 C.ar    1  UNL1        0.2819
      7 O         143.1476  137.5388  160.2440 O.2     1  UNL1       -0.2652
      8 N         142.0115  139.1214  158.5251 N.ar    1  UNL1       -0.2400
      9 C         141.0097  140.1925  158.2099 C.ar    1  UNL1        0.3343
     10 O         140.8752  140.7039  156.8063 O.2     1  UNL1       -0.2462
     11 N         140.1426  140.7521  159.2984 N.ar    1  UNL1       -0.2770
     12 C         139.1409  141.8232  158.9832 C.3     1  UNL1        0.1351
     13 N         139.7040  139.7758  164.5127 N.pl3   1  UNL1       -0.2926
     14 C         140.2411  140.8323  165.4321 C.3     1  UNL1        0.0922
     15 C         139.8181  140.8601  166.8709 C.3     1  UNL1        0.0229
     16 C         138.8579  139.8314  167.3903 C.3     1  UNL1        0.0190
     17 C         138.3207  138.7749  166.4710 C.3     1  UNL1        0.0709
     18 N         137.3605  137.7462  166.9904 N.3     1  UNL1       -0.3208
     19 C         138.7438  138.7471  165.0322 C.3     1  UNL1        0.1075
     20 H         137.1851  137.9144  167.9811 H       1  UNL1        0.1189
     21 H         137.7605  136.8158  166.8692 H       1  UNL1        0.1189
     22 C         138.4819  141.6254  162.1179 C.1     1  UNL1        0.1047
     23 N         137.3984  142.6527  162.2627 N.1     1  UNL1       -0.1907
     24 C         142.0080  137.8550  163.2275 C.3     1  UNL1        0.1842
     25 C         143.2930  138.6791  167.4606 C.3     1  UNL1        0.0900
     26 C         142.8647  138.4044  166.0496 C.1     1  UNL1       -0.0881
     27 C         142.4363  138.1297  164.6385 C.1     1  UNL1       -0.0656
     28 C         142.8786  138.5617  157.4367 C.3     1  UNL1        0.1791
     29 C         142.5001  137.2763  156.7625 C.ar    1  UNL1        0.1617
     30 N         141.6062  137.2959  155.5581 N.ar    1  UNL1       -0.2330
     31 C         141.2277  136.0106  154.8839 C.ar    1  UNL1        0.0622
     32 C         140.3338  136.0303  153.6795 C.3     1  UNL1        0.0522
     33 C         141.7431  134.7055  155.4141 C.ar    1  UNL1        0.0313
     34 C         141.3646  133.4201  154.7400 C.ar    1  UNL1        0.0027
     35 C         141.8800  132.1151  155.2702 C.ar    1  UNL1        0.0001
     36 C         142.7739  132.0954  156.4746 C.ar    1  UNL1        0.0015
     37 C         143.1524  133.3807  157.1488 C.ar    1  UNL1        0.0192
     38 C         142.6370  134.6858  156.6185 C.ar    1  UNL1        0.0838
     39 N         143.0155  135.9712  157.2927 N.ar    1  UNL1       -0.2287
@<TRIPOS>BOND
     1    25    26    1
     2    26    27    3
     3    27    24    1
     4    24     1    1
     5     1     2   ar
     6     2    13    1
     7    13    14    1
     8    14    15    1
     9    15    16    1
    10    16    17    1
    11    17    18    1
    12    17    19    1
    13     2     3   ar
    14     3    22    1
    15    22    23    3
    16     3     4   ar
    17     4     5   ar
    18     5     6   ar
    19     6     7    2
    20     6     8   ar
    21     8    28    1
    22    28    29    1
    23    29    30   ar
    24    30    31   ar
    25    31    32    1
    26    31    33   ar
    27    33    34   ar
    28    34    35   ar
    29    35    36   ar
    30    36    37   ar
    31    37    38   ar
    32    38    39   ar
    33     8     9   ar
    34     9    10    2
    35     9    11   ar
    36    11    12    1
    37     5     1   ar
    38    39    29   ar
    39    19    13    1
    40    11     4   ar
    41    38    33   ar
    42    18    20    1
    43    18    21    1
@<TRIPOS>MOLECULE
*****
 39 43 0 0 0
SMALL
GASTEIGER

@<TRIPOS>ATOM
      1 N         139.3566  141.9858  161.3858 N.ar    1  UNL1       -0.2986
      2 C         140.2296  141.9347  160.1671 C.ar    1  UNL1        0.1245
      3 C         141.0700  140.6950  160.2505 C.ar    1  UNL1        0.1157
      4 C         140.7164  139.9800  161.5208 C.ar    1  UNL1        0.0967
      5 C         139.6575  140.7778  162.2224 C.ar    1  UNL1        0.1354
      6 C         139.1040  140.3010  163.5326 C.ar    1  UNL1        0.2819
      7 O         138.0451  141.0988  164.2342 O.2     1  UNL1       -0.2652
      8 N         139.6094  139.0266  164.1410 N.ar    1  UNL1       -0.2400
      9 C         140.6684  138.2288  163.4394 C.ar    1  UNL1        0.3343
     10 O         141.1738  136.9543  164.0478 O.2     1  UNL1       -0.2462
     11 N         141.2218  138.7055  162.1293 N.ar    1  UNL1       -0.2770
     12 C         142.2807  137.9078  161.4276 C.3     1  UNL1        0.1351
     13 N         140.2574  142.9458  159.0593 N.pl3   1  UNL1       -0.2926
     14 C         139.1877  142.9358  158.0078 C.3     1  UNL1        0.0922
     15 C         139.2155  143.9469  156.9002 C.3     1  UNL1        0.0229
     16 C         140.3129  144.9679  156.8440 C.3     1  UNL1        0.0190
     17 C         141.3826  144.9778  157.8955 C.3     1  UNL1        0.0709
     18 N         142.4801  145.9988  157.8393 N.3     1  UNL1       -0.3208
     19 C         141.3548  143.9668  159.0031 C.3     1  UNL1        0.1075
     20 H         142.3432  146.6008  157.0273 H       1  UNL1        0.1189
     21 H         143.3807  145.5261  157.7640 H       1  UNL1        0.1189
     22 C         142.0856  140.2487  159.2409 C.1     1  UNL1        0.1047
     23 N         143.1013  139.8024  158.2313 N.1     1  UNL1       -0.1907
     24 C         138.3581  143.0570  161.7108 C.3     1  UNL1        0.1842
     25 C         138.4782  145.1042  165.7164 C.3     1  UNL1        0.0900
     26 C         138.4382  144.4218  164.3813 C.1     1  UNL1       -0.0881
     27 C         138.3982  143.7394  163.0460 C.1     1  UNL1       -0.0656
     28 C         139.0560  138.5499  165.4512 C.3     1  UNL1        0.1791
     29 C         139.4990  139.1940  166.7314 C.ar    1  UNL1        0.1617
     30 N         138.5470  139.3013  167.8856 N.ar    1  UNL1       -0.2330
     31 C         138.9900  139.9453  169.1658 C.ar    1  UNL1        0.0622
     32 C         138.0380  140.0527  170.3200 C.3     1  UNL1        0.0522
     33 C         140.3850  140.4821  169.2918 C.ar    1  UNL1        0.0313
     34 C         140.8280  141.1261  170.5720 C.ar    1  UNL1        0.0027
     35 C         142.2230  141.6629  170.6980 C.ar    1  UNL1        0.0001
     36 C         143.1750  141.5555  169.5438 C.ar    1  UNL1        0.0015
     37 C         142.7320  140.9115  168.2636 C.ar    1  UNL1        0.0192
     38 C         141.3370  140.3748  168.1376 C.ar    1  UNL1        0.0838
     39 N         140.8940  139.7307  166.8574 N.ar    1  UNL1       -0.2287
@<TRIPOS>BOND
     1    25    26    1
     2    26    27    3
     3    27    24    1
     4    24     1    1
     5     1     2   ar
     6     2    13    1
     7    13    14    1
     8    14    15    1
     9    15    16    1
    10    16    17    1
    11    17    18    1
    12    17    19    1
    13     2     3   ar
    14     3    22    1
    15    22    23    3
    16     3     4   ar
    17     4     5   ar
    18     5     6   ar
    19     6     7    2
    20     6     8   ar
    21     8    28    1
    22    28    29    1
    23    29    30   ar
    24    30    31   ar
    25    31    32    1
    26    31    33   ar
    27    33    34   ar
    28    34    35   ar
    29    35    36   ar
    30    36    37   ar
    31    37    38   ar
    32    38    39   ar
    33     8     9   ar
    34     9    10    2
    35     9    11   ar
    36    11    12    1
    37     5     1   ar
    38    39    29   ar
    39    19    13    1
    40    11     4   ar
    41    38    33   ar
    42    18    20    1
    43    18    21    1
@<TRIPOS>MOLECULE
*****
 39 43 0 0 0
SMALL
GASTEIGER

@<TRIPOS>ATOM
      1 N         140.8492  138.9737  162.6880 N.ar    1  UNL1       -0.2986
      2 C         141.8640  139.7592  163.4647 C.ar    1  UNL1        0.1245
      3 C         142.4746  140.7700  162.5398 C.ar    1  UNL1        0.1157
      4 C         141.8372  140.6093  161.1916 C.ar    1  UNL1        0.0967
      5 C         140.8327  139.4991  161.2831 C.ar    1  UNL1        0.1354
      6 C         140.0327  139.1101  160.0754 C.ar    1  UNL1        0.2819
      7 O         139.0282  137.9999  160.1669 O.2     1  UNL1       -0.2652
      8 N         140.2372  139.8312  158.7761 N.ar    1  UNL1       -0.2400
      9 C         141.2418  140.9414  158.6846 C.ar    1  UNL1        0.3343
     10 O         141.4463  141.6625  157.3853 O.2     1  UNL1       -0.2462
     11 N         142.0418  141.3304  159.8923 N.ar    1  UNL1       -0.2770
     12 C         143.0463  142.4406  159.8008 C.3     1  UNL1        0.1351
     13 N         142.2078  139.5675  164.9122 N.pl3   1  UNL1       -0.2926
     14 C         141.5672  140.4332  165.9562 C.3     1  UNL1        0.0922
     15 C         141.9111  140.2415  167.4036 C.3     1  UNL1        0.0229
     16 C         142.8955  139.1840  167.8069 C.3     1  UNL1        0.0190
     17 C         143.5361  138.3183  166.7629 C.3     1  UNL1        0.0709
     18 N         144.5205  137.2608  167.1662 N.3     1  UNL1       -0.3208
     19 C         143.1923  138.5100  165.3155 C.3     1  UNL1        0.1075
     20 H         144.6338  137.2706  168.1799 H       1  UNL1        0.1189
     21 H         145.4197  137.4461  166.7218 H       1  UNL1        0.1189
     22 C         143.5362  141.7667  162.9000 C.1     1  UNL1        0.1047
     23 N         144.5979  142.7633  163.2602 N.1     1  UNL1       -0.1907
     24 C         140.0001  137.8586  163.2223 C.3     1  UNL1        0.1842
     25 C         137.6433  138.4422  167.0112 C.3     1  UNL1        0.0900
     26 C         138.4289  138.2476  165.7482 C.1     1  UNL1       -0.0881
     27 C         139.2145  138.0532  164.4853 C.1     1  UNL1       -0.0656
     28 C         139.4372  139.4421  157.5684 C.3     1  UNL1        0.1791
     29 C         139.9336  138.3590  156.6570 C.ar    1  UNL1        0.1617
     30 N         139.2572  138.1186  155.3399 N.ar    1  UNL1       -0.2330
     31 C         139.7535  137.0355  154.4286 C.ar    1  UNL1        0.0622
     32 C         139.0771  136.7951  153.1115 C.3     1  UNL1        0.0522
     33 C         140.9262  136.1928  154.8343 C.ar    1  UNL1        0.0313
     34 C         141.4226  135.1098  153.9229 C.ar    1  UNL1        0.0027
     35 C         142.5953  134.2671  154.3286 C.ar    1  UNL1        0.0001
     36 C         143.2716  134.5075  155.6457 C.ar    1  UNL1        0.0015
     37 C         142.7753  135.5905  156.5571 C.ar    1  UNL1        0.0192
     38 C         141.6026  136.4332  156.1514 C.ar    1  UNL1        0.0838
     39 N         141.1063  137.5163  157.0627 N.ar    1  UNL1       -0.2287
@<TRIPOS>BOND
     1    25    26    1
     2    26    27    3
     3    27    24    1
     4    24     1    1
     5     1     2   ar
     6     2    13    1
     7    13    14    1
     8    14    15    1
     9    15    16    1
    10    16    17    1
    11    17    18    1
    12    17    19    1
    13     2     3   ar
    14     3    22    1
    15    22    23    3
    16     3     4   ar
    17     4     5   ar
    18     5     6   ar
    19     6     7    2
    20     6     8   ar
    21     8    28    1
    22    28    29    1
    23    29    30   ar
    24    30    31   ar
    25    31    32    1
    26    31    33   ar
    27    33    34   ar
    28    34    35   ar
    29    35    36   ar
    30    36    37   ar
    31    37    38   ar
    32    38    39   ar
    33     8     9   ar
    34     9    10    2
    35     9    11   ar
    36    11    12    1
    37     5     1   ar
    38    39    29   ar
    39    19    13    1
    40    11     4   ar
    41    38    33   ar
    42    18    20    1
    43    18    21    1
@<TRIPOS>MOLECULE
*****
 39 43 0 0 0
SMALL
GASTEIGER

@<TRIPOS>ATOM
      1 N         141.1748  144.7789  160.4890 N.ar    1  UNL1       -0.2986
      2 C         141.2955  144.3818  159.0476 C.ar    1  UNL1        0.1245
      3 C         142.4959  143.4928  158.9106 C.ar    1  UNL1        0.1157
      4 C         143.1170  143.3405  160.2674 C.ar    1  UNL1        0.0967
      5 C         142.3006  144.1353  161.2429 C.ar    1  UNL1        0.1354
      6 C         142.6878  144.1703  162.6917 C.ar    1  UNL1        0.2819
      7 O         141.8713  144.9651  163.6672 O.2     1  UNL1       -0.2652
      8 N         143.8913  143.4105  163.1649 N.ar    1  UNL1       -0.2400
      9 C         144.7079  142.6156  162.1894 C.ar    1  UNL1        0.3343
     10 O         145.9115  141.8558  162.6626 O.2     1  UNL1       -0.2462
     11 N         144.3207  142.5806  160.7406 N.ar    1  UNL1       -0.2770
     12 C         145.1371  141.7858  159.7651 C.3     1  UNL1        0.1351
     13 N         140.3770  144.8003  157.9378 N.pl3   1  UNL1       -0.2926
     14 C         139.5021  143.7845  157.2651 C.3     1  UNL1        0.0922
     15 C         138.5837  144.2029  156.1555 C.3     1  UNL1        0.0229
     16 C         138.5403  145.6372  155.7185 C.3     1  UNL1        0.0190
     17 C         139.4152  146.6530  156.3912 C.3     1  UNL1        0.0709
     18 N         139.3718  148.0873  155.9543 N.3     1  UNL1       -0.3208
     19 C         140.3336  146.2345  157.5009 C.3     1  UNL1        0.1075
     20 H         138.6981  148.1913  155.1955 H       1  UNL1        0.1189
     21 H         140.2959  148.3721  155.6299 H       1  UNL1        0.1189
     22 C         142.9886  142.8662  157.6400 C.1     1  UNL1        0.1047
     23 N         143.4813  142.2395  156.3693 N.1     1  UNL1       -0.1907
     24 C         140.1145  145.6641  161.0739 C.3     1  UNL1        0.1842
     25 C         137.5739  144.1830  164.4801 C.3     1  UNL1        0.0900
     26 C         138.4208  144.6766  163.3447 C.1     1  UNL1       -0.0881
     27 C         139.2677  145.1704  162.2093 C.1     1  UNL1       -0.0656
     28 C         144.2785  143.4455  164.6137 C.3     1  UNL1        0.1791
     29 C         143.4180  142.7648  165.6366 C.ar    1  UNL1        0.1617
     30 N         143.7755  142.8460  167.0911 N.ar    1  UNL1       -0.2330
     31 C         142.9151  142.1654  168.1140 C.ar    1  UNL1        0.0622
     32 C         143.2726  142.2466  169.5685 C.3     1  UNL1        0.0522
     33 C         141.6971  141.4035  167.6824 C.ar    1  UNL1        0.0313
     34 C         140.8367  140.7229  168.7053 C.ar    1  UNL1        0.0027
     35 C         139.6189  139.9610  168.2737 C.ar    1  UNL1        0.0001
     36 C         139.2614  139.8799  166.8192 C.ar    1  UNL1        0.0015
     37 C         140.1218  140.5605  165.7963 C.ar    1  UNL1        0.0192
     38 C         141.3397  141.3223  166.2279 C.ar    1  UNL1        0.0838
     39 N         142.2001  142.0030  165.2050 N.ar    1  UNL1       -0.2287
@<TRIPOS>BOND
     1    25    26    1
     2    26    27    3
     3    27    24    1
     4    24     1    1
     5     1     2   ar
     6     2    13    1
     7    13    14    1
     8    14    15    1
     9    15    16    1
    10    16    17    1
    11    17    18    1
    12    17    19    1
    13     2     3   ar
    14     3    22    1
    15    22    23    3
    16     3     4   ar
    17     4     5   ar
    18     5     6   ar
    19     6     7    2
    20     6     8   ar
    21     8    28    1
    22    28    29    1
    23    29    30   ar
    24    30    31   ar
    25    31    32    1
    26    31    33   ar
    27    33    34   ar
    28    34    35   ar
    29    35    36   ar
    30    36    37   ar
    31    37    38   ar
    32    38    39   ar
    33     8     9   ar
    34     9    10    2
    35     9    11   ar
    36    11    12    1
    37     5     1   ar
    38    39    29   ar
    39    19    13    1
    40    11     4   ar
    41    38    33   ar
    42    18    20    1
    43    18    21    1
@<TRIPOS>MOLECULE
*****
 39 43 0 0 0
SMALL
GASTEIGER

@<TRIPOS>ATOM
      1 N         143.0228  141.4173  164.9017 N.ar    1  UNL1       -0.2986
      2 C         142.3182  140.2156  165.4578 C.ar    1  UNL1        0.1245
      3 C         142.1762  139.2096  164.3542 C.ar    1  UNL1        0.1157
      4 C         142.7930  139.7898  163.1161 C.ar    1  UNL1        0.0967
      5 C         143.3162  141.1542  163.4544 C.ar    1  UNL1        0.1354
      6 C         143.9923  141.9807  162.4010 C.ar    1  UNL1        0.2819
      7 O         144.5155  143.3451  162.7393 O.2     1  UNL1       -0.2652
      8 N         144.1451  141.4428  161.0091 N.ar    1  UNL1       -0.2400
      9 C         143.6218  140.0783  160.6707 C.ar    1  UNL1        0.3343
     10 O         143.7746  139.5404  159.2789 O.2     1  UNL1       -0.2462
     11 N         142.9458  139.2518  161.7242 N.ar    1  UNL1       -0.2770
     12 C         142.4225  137.8874  161.3858 C.3     1  UNL1        0.1351
     13 N         141.8397  140.0489  166.8697 N.pl3   1  UNL1       -0.2926
     14 C         140.5220  140.6305  167.2885 C.3     1  UNL1        0.0922
     15 C         140.0435  140.4638  168.7003 C.3     1  UNL1        0.0229
     16 C         140.8827  139.7156  169.6933 C.3     1  UNL1        0.0190
     17 C         142.2003  139.1340  169.2744 C.3     1  UNL1        0.0709
     18 N         143.0395  138.3857  170.2673 N.3     1  UNL1       -0.3208
     19 C         142.6788  139.3006  167.8626 C.3     1  UNL1        0.1075
     20 H         142.5648  138.3697  171.1700 H       1  UNL1        0.1189
     21 H         143.9429  138.8487  170.3664 H       1  UNL1        0.1189
     22 C         141.5307  137.8605  164.4686 C.1     1  UNL1        0.1047
     23 N         140.8852  136.5113  164.5830 N.1     1  UNL1       -0.1907
     24 C         143.3726  142.6635  165.6598 C.3     1  UNL1        0.1842
     25 C         143.6421  142.5643  170.1507 C.3     1  UNL1        0.0900
     26 C         143.5523  142.5974  168.6537 C.1     1  UNL1       -0.0881
     27 C         143.4624  142.6304  167.1567 C.1     1  UNL1       -0.0656
     28 C         144.8211  142.2693  159.9556 C.3     1  UNL1        0.1791
     29 C         144.0123  142.8886  158.8545 C.ar    1  UNL1        0.1617
     30 N         144.2497  142.4827  157.4301 N.ar    1  UNL1       -0.2330
     31 C         143.4409  143.1019  156.3291 C.ar    1  UNL1        0.0622
     32 C         143.6784  142.6959  154.9047 C.3     1  UNL1        0.0522
     33 C         142.3947  144.1270  156.6523 C.ar    1  UNL1        0.0313
     34 C         141.5859  144.7462  155.5512 C.ar    1  UNL1        0.0027
     35 C         140.5397  145.7713  155.8745 C.ar    1  UNL1        0.0001
     36 C         140.3022  146.1772  157.2989 C.ar    1  UNL1        0.0015
     37 C         141.1110  145.5580  158.4000 C.ar    1  UNL1        0.0192
     38 C         142.1572  144.5329  158.0767 C.ar    1  UNL1        0.0838
     39 N         142.9661  143.9137  159.1778 N.ar    1  UNL1       -0.2287
@<TRIPOS>BOND
     1    25    26    1
     2    26    27    3
     3    27    24    1
     4    24     1    1
     5     1     2   ar
     6     2    13    1
     7    13    14    1
     8    14    15    1
     9    15    16    1
    10    16    17    1
    11    17    18    1
    12    17    19    1
    13     2     3   ar
    14     3    22    1
    15    22    23    3
    16     3     4   ar
    17     4     5   ar
    18     5     6   ar
    19     6     7    2
    20     6     8   ar
    21     8    28    1
    22    28    29    1
    23    29    30   ar
    24    30    31   ar
    25    31    32    1
    26    31    33   ar
    27    33    34   ar
    28    34    35   ar
    29    35    36   ar
    30    36    37   ar
    31    37    38   ar
    32    38    39   ar
    33     8     9   ar
    34     9    10    2
    35     9    11   ar
    36    11    12    1
    37     5     1   ar
    38    39    29   ar
    39    19    13    1
    40    11     4   ar
    41    38    33   ar
    42    18    20    1
    43    18    21    1
