@<TRIPOS>MOLECULE
*****
 19 22 0 0 0
SMALL
GASTEIGER

@<TRIPOS>ATOM
      1 CL        137.2722  139.9298  160.4129 Cl      1  UNL1       -0.0805
      2 C         137.7992  139.4617  161.7370 C.ar    1  UNL1        0.0799
      3 C         138.2015  138.0283  161.9197 C.ar    1  UNL1        0.1121
      4 N         138.7285  137.5602  163.2438 N.ar    1  UNL1       -0.2215
      5 C         138.8531  138.5255  164.3851 C.ar    1  UNL1        0.2016
      6 N         139.3352  138.3556  165.7953 N.ar    1  UNL1       -0.1754
      7 C         139.2309  139.6840  166.4841 C.ar    1  UNL1        0.2938
      8 O         138.6843  140.6749  165.4996 O.2     1  UNL1       -0.4221
      9 C         138.4508  139.9589  164.2023 C.ar    1  UNL1        0.1849
     10 C         137.9238  140.4270  162.8783 C.ar    1  UNL1        0.0537
     11 N         139.7827  140.1050  168.5718 N.pl3   1  UNL1       -0.2637
     12 C         139.1014  140.2256  169.1356 C.3     1  UNL1        0.1123
     13 C         139.0746  140.3869  169.9256 C.3     1  UNL1        0.0939
     14 N         139.8562  140.5745  170.8775 N.3     1  UNL1       -0.2711
     15 C         140.1449  140.4182  170.1225 C.3     1  UNL1        0.0738
     16 C         140.6976  140.1663  168.9097 C.3     1  UNL1        0.0372
     17 C         141.0785  140.0175  168.1951 C.3     1  UNL1        0.0798
     18 C         141.9592  140.2530  169.3863 C.3     1  UNL1        0.0372
     19 C         141.3480  140.5315  170.7274 C.3     1  UNL1        0.0738
@<TRIPOS>BOND
     1     1     2    1
     2     2     3   ar
     3     3     4   ar
     4     4     5   ar
     5     5     6   ar
     6     6     7   ar
     7     7    11    1
     8    11    12    1
     9    12    13    1
    10    13    14    1
    11    14    15    1
    12    15    16    1
    13    16    17    1
    14    17    18    1
    15    18    19    1
    16     7     8   ar
    17     8     9   ar
    18     9    10   ar
    19    10     2   ar
    20     9     5   ar
    21    17    11    1
    22    19    14    1
@<TRIPOS>MOLECULE
*****
 19 22 0 0 0
SMALL
GASTEIGER

@<TRIPOS>ATOM
      1 CL        137.9083  138.0032  161.9010 Cl      1  UNL1       -0.0805
      2 C         138.3024  139.1868  162.7338 C.ar    1  UNL1        0.0799
      3 C         138.0619  140.5766  162.2232 C.ar    1  UNL1        0.1121
      4 N         138.4560  141.7603  163.0560 N.ar    1  UNL1       -0.2215
      5 C         139.0907  141.5542  164.3994 C.ar    1  UNL1        0.2016
      6 N         139.5812  142.5204  165.4366 N.ar    1  UNL1       -0.1754
      7 C         140.1250  141.7278  166.5882 C.ar    1  UNL1        0.2938
      8 O         139.9705  140.2717  166.2627 O.2     1  UNL1       -0.4221
      9 C         139.3312  140.1645  164.9100 C.ar    1  UNL1        0.1849
     10 C         138.9371  138.9808  164.0771 C.ar    1  UNL1        0.0537
     11 N         140.9962  142.5557  168.4310 N.pl3   1  UNL1       -0.2637
     12 C         140.4483  143.0551  168.9279 C.3     1  UNL1        0.1123
     13 C         140.5558  143.4466  169.6250 C.3     1  UNL1        0.0939
     14 N         141.4529  143.6480  170.4657 N.3     1  UNL1       -0.2711
     15 C         141.5984  143.1864  169.7997 C.3     1  UNL1        0.0738
     16 C         141.9159  142.4153  168.7300 C.3     1  UNL1        0.0372
     17 C         142.1552  141.9426  168.0997 C.3     1  UNL1        0.0798
     18 C         143.1860  142.2269  169.1517 C.3     1  UNL1        0.0372
     19 C         142.8348  143.0796  170.3346 C.3     1  UNL1        0.0738
@<TRIPOS>BOND
     1     1     2    1
     2     2     3   ar
     3     3     4   ar
     4     4     5   ar
     5     5     6   ar
     6     6     7   ar
     7     7    11    1
     8    11    12    1
     9    12    13    1
    10    13    14    1
    11    14    15    1
    12    15    16    1
    13    16    17    1
    14    17    18    1
    15    18    19    1
    16     7     8   ar
    17     8     9   ar
    18     9    10   ar
    19    10     2   ar
    20     9     5   ar
    21    17    11    1
    22    19    14    1
@<TRIPOS>MOLECULE
*****
 19 22 0 0 0
SMALL
GASTEIGER

@<TRIPOS>ATOM
      1 CL        143.6502  137.6561  161.5096 Cl      1  UNL1       -0.0805
      2 C         142.5975  138.0844  162.4886 C.ar    1  UNL1        0.0799
      3 C         141.1481  137.8505  162.1816 C.ar    1  UNL1        0.1121
      4 N         140.0955  138.2788  163.1607 N.ar    1  UNL1       -0.2215
      5 C         140.4923  138.9411  164.4467 C.ar    1  UNL1        0.2016
      6 N         139.6844  139.4676  165.5956 N.ar    1  UNL1       -0.1754
      7 C         140.6345  140.0270  166.6127 C.ar    1  UNL1        0.2938
      8 O         142.0297  139.8461  166.0924 O.2     1  UNL1       -0.4221
      9 C         141.9418  139.1750  164.7537 C.ar    1  UNL1        0.1849
     10 C         142.9944  138.7466  163.7746 C.ar    1  UNL1        0.0537
     11 N         140.0793  140.9504  168.5307 N.pl3   1  UNL1       -0.2637
     12 C         139.6596  140.4169  169.1103 C.3     1  UNL1        0.1123
     13 C         139.3730  140.5443  169.8535 C.3     1  UNL1        0.0939
     14 N         139.2919  141.4650  170.6888 N.3     1  UNL1       -0.2711
     15 C         139.6513  141.5915  169.9590 C.3     1  UNL1        0.0738
     16 C         140.2575  141.8784  168.7800 C.3     1  UNL1        0.0372
     17 C         140.6327  142.0996  168.0813 C.3     1  UNL1        0.0798
     18 C         140.4996  143.1600  169.1337 C.3     1  UNL1        0.0372
     19 C         139.8293  142.8427  170.4375 C.3     1  UNL1        0.0738
@<TRIPOS>BOND
     1     1     2    1
     2     2     3   ar
     3     3     4   ar
     4     4     5   ar
     5     5     6   ar
     6     6     7   ar
     7     7    11    1
     8    11    12    1
     9    12    13    1
    10    13    14    1
    11    14    15    1
    12    15    16    1
    13    16    17    1
    14    17    18    1
    15    18    19    1
    16     7     8   ar
    17     8     9   ar
    18     9    10   ar
    19    10     2   ar
    20     9     5   ar
    21    17    11    1
    22    19    14    1
@<TRIPOS>MOLECULE
*****
 19 22 0 0 0
SMALL
GASTEIGER

@<TRIPOS>ATOM
      1 CL        139.5997  146.2309  161.8495 Cl      1  UNL1       -0.0805
      2 C         139.4120  145.0061  162.6949 C.ar    1  UNL1        0.0799
      3 C         138.4594  143.9326  162.2589 C.ar    1  UNL1        0.1121
      4 N         138.2717  142.7079  163.1044 N.ar    1  UNL1       -0.2215
      5 C         139.0367  142.5566  164.3857 C.ar    1  UNL1        0.2016
      6 N         139.0594  141.4693  165.4188 N.ar    1  UNL1       -0.1754
      7 C         140.0261  141.8708  166.4932 C.ar    1  UNL1        0.2938
      8 O         140.6008  143.2062  166.1242 O.2     1  UNL1       -0.4221
      9 C         139.9894  143.6300  164.8216 C.ar    1  UNL1        0.1849
     10 C         140.1770  144.8548  163.9762 C.ar    1  UNL1        0.0537
     11 N         140.5150  140.7055  168.2941 N.pl3   1  UNL1       -0.2637
     12 C         139.8727  140.6602  168.9122 C.3     1  UNL1        0.1123
     13 C         139.8380  140.2957  169.6311 C.3     1  UNL1        0.0939
     14 N         140.5552  139.5925  170.3681 N.3     1  UNL1       -0.2711
     15 C         140.8337  139.8555  169.6394 C.3     1  UNL1        0.0738
     16 C         141.3640  140.2490  168.4547 C.3     1  UNL1        0.0372
     17 C         141.7280  140.4630  167.7478 C.3     1  UNL1        0.0798
     18 C         142.5346  139.6146  168.6856 C.3     1  UNL1        0.0372
     19 C         141.9482  139.1793  169.9957 C.3     1  UNL1        0.0738
@<TRIPOS>BOND
     1     1     2    1
     2     2     3   ar
     3     3     4   ar
     4     4     5   ar
     5     5     6   ar
     6     6     7   ar
     7     7    11    1
     8    11    12    1
     9    12    13    1
    10    13    14    1
    11    14    15    1
    12    15    16    1
    13    16    17    1
    14    17    18    1
    15    18    19    1
    16     7     8   ar
    17     8     9   ar
    18     9    10   ar
    19    10     2   ar
    20     9     5   ar
    21    17    11    1
    22    19    14    1
@<TRIPOS>MOLECULE
*****
 19 22 0 0 0
SMALL
GASTEIGER

@<TRIPOS>ATOM
      1 CL        142.0582  142.1412  171.0266 Cl      1  UNL1       -0.0805
      2 C         141.1472  141.3885  170.1027 C.ar    1  UNL1        0.0799
      3 C         140.0218  140.5696  170.6618 C.ar    1  UNL1        0.1121
      4 N         139.1108  139.8169  169.7378 N.ar    1  UNL1       -0.2215
      5 C         139.3253  139.8832  168.2548 C.ar    1  UNL1        0.2016
      6 N         138.5952  139.2532  167.1059 N.ar    1  UNL1       -0.1754
      7 C         139.2694  139.6828  165.8366 C.ar    1  UNL1        0.2938
      8 O         140.4162  140.5782  166.2011 O.2     1  UNL1       -0.4221
      9 C         140.4508  140.7021  167.6957 C.ar    1  UNL1        0.1849
     10 C         141.3618  141.4547  168.6196 C.ar    1  UNL1        0.0537
     11 N         138.6797  139.1015  163.7984 N.pl3   1  UNL1       -0.2637
     12 C         138.8758  138.2633  163.5627 C.3     1  UNL1        0.1123
     13 C         138.7535  137.8501  162.8807 C.3     1  UNL1        0.0939
     14 N         138.2577  138.0199  161.7504 N.3     1  UNL1       -0.2711
     15 C         138.2620  138.6307  162.3024 C.3     1  UNL1        0.0738
     16 C         138.2308  139.6848  163.1554 C.3     1  UNL1        0.0372
     17 C         138.1887  140.3512  163.6371 C.3     1  UNL1        0.0798
     18 C         137.6101  140.4838  162.2596 C.3     1  UNL1        0.0372
     19 C         137.6446  139.3181  161.3163 C.3     1  UNL1        0.0738
@<TRIPOS>BOND
     1     1     2    1
     2     2     3   ar
     3     3     4   ar
     4     4     5   ar
     5     5     6   ar
     6     6     7   ar
     7     7    11    1
     8    11    12    1
     9    12    13    1
    10    13    14    1
    11    14    15    1
    12    15    16    1
    13    16    17    1
    14    17    18    1
    15    18    19    1
    16     7     8   ar
    17     8     9   ar
    18     9    10   ar
    19    10     2   ar
    20     9     5   ar
    21    17    11    1
    22    19    14    1
@<TRIPOS>MOLECULE
*****
 19 22 0 0 0
SMALL
GASTEIGER

@<TRIPOS>ATOM
      1 CL        142.6973  138.4775  170.0124 Cl      1  UNL1       -0.0805
      2 C         142.0401  139.7007  169.4451 C.ar    1  UNL1        0.0799
      3 C         141.5093  140.7612  170.3635 C.ar    1  UNL1        0.1121
      4 N         140.8521  141.9844  169.7961 N.ar    1  UNL1       -0.2215
      5 C         140.7258  142.1472  168.3103 C.ar    1  UNL1        0.2016
      6 N         140.1316  143.2359  167.4668 N.ar    1  UNL1       -0.1754
      7 C         140.2953  142.8482  166.0270 C.ar    1  UNL1        0.2938
      8 O         140.9906  141.5200  165.9807 O.2     1  UNL1       -0.4221
      9 C         141.2567  141.0867  167.3919 C.ar    1  UNL1        0.1849
     10 C         141.9139  139.8635  167.9593 C.ar    1  UNL1        0.0537
     11 N         139.6318  144.0219  164.2884 N.pl3   1  UNL1       -0.2637
     12 C         138.7671  143.9496  164.0795 C.3     1  UNL1        0.1123
     13 C         138.3216  144.2832  163.4956 C.3     1  UNL1        0.0939
     14 N         138.4567  145.0668  162.5365 N.3     1  UNL1       -0.2711
     15 C         139.0998  144.8713  163.0119 C.3     1  UNL1        0.0738
     16 C         140.2061  144.5989  163.7478 C.3     1  UNL1        0.0372
     17 C         140.9037  144.4643  164.1640 C.3     1  UNL1        0.0798
     18 C         140.9924  145.3992  162.9944 C.3     1  UNL1        0.0372
     19 C         139.7689  145.7004  162.1806 C.3     1  UNL1        0.0738
@<TRIPOS>BOND
     1     1     2    1
     2     2     3   ar
     3     3     4   ar
     4     4     5   ar
     5     5     6   ar
     6     6     7   ar
     7     7    11    1
     8    11    12    1
     9    12    13    1
    10    13    14    1
    11    14    15    1
    12    15    16    1
    13    16    17    1
    14    17    18    1
    15    18    19    1
    16     7     8   ar
    17     8     9   ar
    18     9    10   ar
    19    10     2   ar
    20     9     5   ar
    21    17    11    1
    22    19    14    1
@<TRIPOS>MOLECULE
*****
 19 22 0 0 0
SMALL
GASTEIGER

@<TRIPOS>ATOM
      1 CL        139.6951  146.3870  161.4326 Cl      1  UNL1       -0.0805
      2 C         140.2701  145.4317  162.4360 C.ar    1  UNL1        0.0799
      3 C         141.6513  144.8803  162.2408 C.ar    1  UNL1        0.1121
      4 N         142.2263  143.9251  163.2442 N.ar    1  UNL1       -0.2215
      5 C         141.4201  143.5211  164.4428 C.ar    1  UNL1        0.2016
      6 N         141.7199  142.6044  165.5916 N.ar    1  UNL1       -0.1754
      7 C         140.5239  142.5892  166.4969 C.ar    1  UNL1        0.2938
      8 O         139.4850  143.4965  165.9076 O.2     1  UNL1       -0.4221
      9 C         140.0388  144.0725  164.6380 C.ar    1  UNL1        0.1849
     10 C         139.4638  145.0277  163.6346 C.ar    1  UNL1        0.0537
     11 N         140.3281  141.4382  168.3616 N.pl3   1  UNL1       -0.2637
     12 C         139.9754  140.6226  168.2780 C.3     1  UNL1        0.1123
     13 C         139.8162  140.0439  168.8170 C.3     1  UNL1        0.0939
     14 N         139.9183  139.8413  170.0420 N.3     1  UNL1       -0.2711
     15 C         140.1655  140.5543  169.7130 C.3     1  UNL1        0.0738
     16 C         140.5946  141.7538  169.2473 C.3     1  UNL1        0.0372
     17 C         140.8674  142.4942  169.0120 C.3     1  UNL1        0.0798
     18 C         140.9600  142.1814  170.4760 C.3     1  UNL1        0.0372
     19 C         140.4854  140.8550  170.9910 C.3     1  UNL1        0.0738
@<TRIPOS>BOND
     1     1     2    1
     2     2     3   ar
     3     3     4   ar
     4     4     5   ar
     5     5     6   ar
     6     6     7   ar
     7     7    11    1
     8    11    12    1
     9    12    13    1
    10    13    14    1
    11    14    15    1
    12    15    16    1
    13    16    17    1
    14    17    18    1
    15    18    19    1
    16     7     8   ar
    17     8     9   ar
    18     9    10   ar
    19    10     2   ar
    20     9     5   ar
    21    17    11    1
    22    19    14    1
@<TRIPOS>MOLECULE
*****
 19 22 0 0 0
SMALL
GASTEIGER

@<TRIPOS>ATOM
      1 CL        143.8681  137.9199  161.1262 Cl      1  UNL1       -0.0805
      2 C         143.1625  138.3698  162.3711 C.ar    1  UNL1        0.0799
      3 C         141.8198  137.7994  162.7199 C.ar    1  UNL1        0.1121
      4 N         141.1142  138.2494  163.9648 N.ar    1  UNL1       -0.2215
      5 C         141.7512  139.2698  164.8607 C.ar    1  UNL1        0.2016
      6 N         141.2987  139.9009  166.1440 N.ar    1  UNL1       -0.1754
      7 C         142.3617  140.8615  166.5883 C.ar    1  UNL1        0.2938
      8 O         143.4713  140.8240  165.5796 O.2     1  UNL1       -0.4221
      9 C         143.0939  139.8403  164.5119 C.ar    1  UNL1        0.1849
     10 C         143.7995  139.3903  163.2670 C.ar    1  UNL1        0.0537
     11 N         142.3037  142.1066  168.4012 N.pl3   1  UNL1       -0.2637
     12 C         143.0544  142.1235  168.8835 C.3     1  UNL1        0.1123
     13 C         143.2499  142.5040  169.5675 C.3     1  UNL1        0.0939
     14 N         142.7343  143.2757  170.3987 N.3     1  UNL1       -0.2711
     15 C         142.3045  143.0132  169.7473 C.3     1  UNL1        0.0738
     16 C         141.5322  142.6258  168.7017 C.3     1  UNL1        0.0372
     17 C         141.0261  142.4188  168.0862 C.3     1  UNL1        0.0798
     18 C         140.4707  143.3469  169.1254 C.3     1  UNL1        0.0372
     19 C         141.3248  143.7753  170.2816 C.3     1  UNL1        0.0738
@<TRIPOS>BOND
     1     1     2    1
     2     2     3   ar
     3     3     4   ar
     4     4     5   ar
     5     5     6   ar
     6     6     7   ar
     7     7    11    1
     8    11    12    1
     9    12    13    1
    10    13    14    1
    11    14    15    1
    12    15    16    1
    13    16    17    1
    14    17    18    1
    15    18    19    1
    16     7     8   ar
    17     8     9   ar
    18     9    10   ar
    19    10     2   ar
    20     9     5   ar
    21    17    11    1
    22    19    14    1
@<TRIPOS>MOLECULE
*****
 19 22 0 0 0
SMALL
GASTEIGER

@<TRIPOS>ATOM
      1 CL        138.2382  140.0774  170.1930 Cl      1  UNL1       -0.0805
      2 C         139.4494  140.6724  169.5379 C.ar    1  UNL1        0.0799
      3 C         140.3179  141.6312  170.2970 C.ar    1  UNL1        0.1121
      4 N         141.5290  142.2262  169.6419 N.ar    1  UNL1       -0.2215
      5 C         141.8716  141.8623  168.2276 C.ar    1  UNL1        0.2016
      6 N         142.9931  142.2854  167.3259 N.ar    1  UNL1       -0.1754
      7 C         142.8178  141.5881  166.0094 C.ar    1  UNL1        0.2938
      8 O         141.5879  140.7340  166.0975 O.2     1  UNL1       -0.4221
      9 C         141.0031  140.9034  167.4685 C.ar    1  UNL1        0.1849
     10 C         139.7920  140.3085  168.1236 C.ar    1  UNL1        0.0537
     11 N         144.1335  141.7838  164.2571 N.pl3   1  UNL1       -0.2637
     12 C         144.9468  141.4260  164.3416 C.3     1  UNL1        0.1123
     13 C         145.5746  141.3836  163.8368 C.3     1  UNL1        0.0939
     14 N         145.8822  141.7349  162.6817 N.3     1  UNL1       -0.2711
     15 C         145.1370  141.9056  162.9874 C.3     1  UNL1        0.0738
     16 C         143.8911  142.2238  163.4188 C.3     1  UNL1        0.0372
     17 C         143.1264  142.4386  163.6358 C.3     1  UNL1        0.0798
     18 C         143.5650  142.8300  162.2559 C.3     1  UNL1        0.0372
     19 C         144.9429  142.4782  161.7788 C.3     1  UNL1        0.0738
@<TRIPOS>BOND
     1     1     2    1
     2     2     3   ar
     3     3     4   ar
     4     4     5   ar
     5     5     6   ar
     6     6     7   ar
     7     7    11    1
     8    11    12    1
     9    12    13    1
    10    13    14    1
    11    14    15    1
    12    15    16    1
    13    16    17    1
    14    17    18    1
    15    18    19    1
    16     7     8   ar
    17     8     9   ar
    18     9    10   ar
    19    10     2   ar
    20     9     5   ar
    21    17    11    1
    22    19    14    1
