@<TRIPOS>MOLECULE
*****
 29 31 0 0 0
SMALL
GASTEIGER

@<TRIPOS>ATOM
      1 C         141.5300  138.2278  158.1511 C.ar    1  UNL1        0.1535
      2 C         140.0627  138.4680  158.3487 C.ar    1  UNL1        0.0377
      3 C         139.4945  138.5396  159.7350 C.ar    1  UNL1        0.0239
      4 C         140.3936  138.3710  160.9237 C.ar    1  UNL1        0.1059
      5 N         141.8610  138.1308  160.7261 N.ar    1  UNL1       -0.1467
      6 N         142.4292  138.0592  159.3398 N.ar    1  UNL1       -0.1329
      7 C         139.8254  138.4426  162.3101 C.ar    1  UNL1        0.0531
      8 C         138.7627  139.4505  162.6340 C.ar    1  UNL1        0.0053
      9 C         138.1944  139.5221  164.0203 C.ar    1  UNL1        0.0105
     10 C         138.6889  138.5859  165.0828 C.ar    1  UNL1        0.0715
     11 C         139.7516  137.5779  164.7590 C.ar    1  UNL1        0.0469
     12 C         140.3198  137.5064  163.3726 C.ar    1  UNL1        0.1358
     13 O         141.3825  136.4984  163.0487 O.3     1  UNL1       -0.5054
     14 H         141.6914  135.9136  163.7124 H       1  UNL1        0.2922
     15 C         138.1207  138.6574  166.4692 C.1     1  UNL1        0.1005
     16 N         137.5524  138.7290  167.8555 N.1     1  UNL1       -0.1908
     17 C         142.5133  139.4127  156.0584 C.3     1  UNL1        0.1135
     18 N         142.0983  138.1561  156.7647 N.pl3   1  UNL1       -0.2916
     19 C         142.2516  136.8280  156.0846 C.3     1  UNL1        0.0768
     20 C         141.8096  136.6587  154.6613 C.3     1  UNL1        0.0342
     21 C         141.9628  135.3305  153.9813 C.3     1  UNL1        0.0435
     22 C         141.9020  134.2778  152.9145 C.3     1  UNL1        0.0158
     23 C         141.3464  136.1238  152.8675 C.3     1  UNL1        0.0158
     24 N         142.5581  134.1716  154.7246 N.3     1  UNL1       -0.3015
     25 C         143.0001  134.3408  156.1480 C.3     1  UNL1        0.0435
     26 C         143.5633  134.0088  157.4981 C.3     1  UNL1        0.0158
     27 C         143.3489  132.8974  155.9369 C.3     1  UNL1        0.0158
     28 C         142.8469  135.6690  156.8280 C.3     1  UNL1        0.0342
     29 H         143.3771  133.8718  154.1956 H       1  UNL1        0.1231
@<TRIPOS>BOND
     1    17    18    1
     2    18     1    1
     3     1     2   ar
     4     2     3   ar
     5     3     4   ar
     6     4     7    1
     7     7     8   ar
     8     8     9   ar
     9     9    10   ar
    10    10    15    1
    11    15    16    3
    12    10    11   ar
    13    11    12   ar
    14    12    13    1
    15     4     5   ar
    16     5     6   ar
    17    18    19    1
    18    19    20    1
    19    20    21    1
    20    21    22    1
    21    21    23    1
    22    21    24    1
    23    24    25    1
    24    25    26    1
    25    25    27    1
    26    25    28    1
    27     6     1   ar
    28    28    19    1
    29    12     7   ar
    30    13    14    1
    31    24    29    1
@<TRIPOS>MOLECULE
*****
 29 31 0 0 0
SMALL
GASTEIGER

@<TRIPOS>ATOM
      1 C         141.9651  138.3052  158.3952 C.ar    1  UNL1        0.1535
      2 C         140.5161  138.6750  158.5108 C.ar    1  UNL1        0.0377
      3 C         139.8606  138.7269  159.8589 C.ar    1  UNL1        0.0239
      4 C         140.6541  138.4091  161.0915 C.ar    1  UNL1        0.1059
      5 N         142.1032  138.0393  160.9759 N.ar    1  UNL1       -0.1467
      6 N         142.7587  137.9873  159.6278 N.ar    1  UNL1       -0.1329
      7 C         139.9985  138.4610  162.4397 C.ar    1  UNL1        0.0531
      8 C         138.9528  139.4975  162.7257 C.ar    1  UNL1        0.0053
      9 C         138.2972  139.5495  164.0739 C.ar    1  UNL1        0.0105
     10 C         138.6874  138.5648  165.1361 C.ar    1  UNL1        0.0715
     11 C         139.7333  137.5282  164.8500 C.ar    1  UNL1        0.0469
     12 C         140.3888  137.4763  163.5019 C.ar    1  UNL1        0.1358
     13 O         141.4347  136.4397  163.2158 O.3     1  UNL1       -0.5054
     14 H         141.6784  135.8246  163.8793 H       1  UNL1        0.2922
     15 C         138.0319  138.6167  166.4842 C.1     1  UNL1        0.1005
     16 N         137.3764  138.6686  167.8324 N.1     1  UNL1       -0.1908
     17 C         143.2783  139.4787  156.4851 C.3     1  UNL1        0.1135
     18 N         142.6207  138.2533  157.0470 N.pl3   1  UNL1       -0.2916
     19 C         142.6187  136.9758  156.2608 C.3     1  UNL1        0.0768
     20 C         143.1183  135.7083  156.8881 C.3     1  UNL1        0.0342
     21 C         143.1163  134.4308  156.1019 C.3     1  UNL1        0.0435
     22 C         143.3121  132.9821  155.7661 C.3     1  UNL1        0.0158
     23 C         143.6859  133.9376  157.3989 C.3     1  UNL1        0.0158
     24 N         142.6146  134.4209  154.6884 N.3     1  UNL1       -0.3015
     25 C         142.1150  135.6885  154.0609 C.3     1  UNL1        0.0435
     26 C         141.5460  136.6255  153.0370 C.3     1  UNL1        0.0158
     27 C         141.9154  134.7365  152.9191 C.3     1  UNL1        0.0158
     28 C         142.1170  136.9660  154.8471 C.3     1  UNL1        0.0342
     29 H         141.8454  133.7521  154.6536 H       1  UNL1        0.1231
@<TRIPOS>BOND
     1    17    18    1
     2    18     1    1
     3     1     2   ar
     4     2     3   ar
     5     3     4   ar
     6     4     7    1
     7     7     8   ar
     8     8     9   ar
     9     9    10   ar
    10    10    15    1
    11    15    16    3
    12    10    11   ar
    13    11    12   ar
    14    12    13    1
    15     4     5   ar
    16     5     6   ar
    17    18    19    1
    18    19    20    1
    19    20    21    1
    20    21    22    1
    21    21    23    1
    22    21    24    1
    23    24    25    1
    24    25    26    1
    25    25    27    1
    26    25    28    1
    27     6     1   ar
    28    28    19    1
    29    12     7   ar
    30    13    14    1
    31    24    29    1
@<TRIPOS>MOLECULE
*****
 29 31 0 0 0
SMALL
GASTEIGER

@<TRIPOS>ATOM
      1 C         141.3188  142.2633  164.3816 C.ar    1  UNL1        0.1535
      2 C         140.2786  143.3153  164.1348 C.ar    1  UNL1        0.0377
      3 C         139.9453  143.7257  162.7310 C.ar    1  UNL1        0.0239
      4 C         140.6523  143.0839  161.5742 C.ar    1  UNL1        0.1059
      5 N         141.6926  142.0319  161.8210 N.ar    1  UNL1       -0.1467
      6 N         142.0258  141.6215  163.2247 N.ar    1  UNL1       -0.1329
      7 C         140.3190  143.4943  160.1704 C.ar    1  UNL1        0.0531
      8 C         139.4176  142.6370  159.3323 C.ar    1  UNL1        0.0053
      9 C         139.0843  143.0474  157.9285 C.ar    1  UNL1        0.0105
     10 C         139.6524  144.3152  157.3629 C.ar    1  UNL1        0.0715
     11 C         140.5539  145.1725  158.2010 C.ar    1  UNL1        0.0469
     12 C         140.8872  144.7621  159.6047 C.ar    1  UNL1        0.1358
     13 O         141.7886  145.6195  160.4428 O.3     1  UNL1       -0.5054
     14 H         142.1436  146.4114  160.0895 H       1  UNL1        0.2922
     15 C         139.3192  144.7256  155.9591 C.1     1  UNL1        0.1005
     16 N         138.9859  145.1360  154.5554 N.1     1  UNL1       -0.1908
     17 C         142.9897  142.1978  166.3701 C.3     1  UNL1        0.1135
     18 N         141.6521  141.8529  165.7854 N.pl3   1  UNL1       -0.2916
     19 C         140.6478  141.0975  166.6044 C.3     1  UNL1        0.0768
     20 C         139.7558  140.0846  165.9500 C.3     1  UNL1        0.0342
     21 C         138.7515  139.3292  166.7691 C.3     1  UNL1        0.0435
     22 C         137.6538  138.3686  167.1185 C.3     1  UNL1        0.0158
     23 C         138.4826  138.7380  165.4170 C.3     1  UNL1        0.0158
     24 N         138.6392  139.5868  168.2425 N.3     1  UNL1       -0.3015
     25 C         139.5312  140.5998  168.8969 C.3     1  UNL1        0.0435
     26 C         140.1490  141.4533  169.9646 C.3     1  UNL1        0.0158
     27 C         138.7415  140.1408  170.0867 C.3     1  UNL1        0.0158
     28 C         140.5355  141.3551  168.0779 C.3     1  UNL1        0.0342
     29 H         138.8108  138.6971  168.7108 H       1  UNL1        0.1231
@<TRIPOS>BOND
     1    17    18    1
     2    18     1    1
     3     1     2   ar
     4     2     3   ar
     5     3     4   ar
     6     4     7    1
     7     7     8   ar
     8     8     9   ar
     9     9    10   ar
    10    10    15    1
    11    15    16    3
    12    10    11   ar
    13    11    12   ar
    14    12    13    1
    15     4     5   ar
    16     5     6   ar
    17    18    19    1
    18    19    20    1
    19    20    21    1
    20    21    22    1
    21    21    23    1
    22    21    24    1
    23    24    25    1
    24    25    26    1
    25    25    27    1
    26    25    28    1
    27     6     1   ar
    28    28    19    1
    29    12     7   ar
    30    13    14    1
    31    24    29    1
@<TRIPOS>MOLECULE
*****
 29 31 0 0 0
SMALL
GASTEIGER

@<TRIPOS>ATOM
      1 C         141.3591  142.1846  164.4004 C.ar    1  UNL1        0.1535
      2 C         140.4814  143.3793  164.1721 C.ar    1  UNL1        0.0377
      3 C         140.1514  143.8113  162.7741 C.ar    1  UNL1        0.0239
      4 C         140.6990  143.0485  161.6044 C.ar    1  UNL1        0.1059
      5 N         141.5767  141.8537  161.8327 N.ar    1  UNL1       -0.1467
      6 N         141.9067  141.4218  163.2307 N.ar    1  UNL1       -0.1329
      7 C         140.3689  143.4805  160.2064 C.ar    1  UNL1        0.0531
      8 C         139.4117  142.6751  159.3788 C.ar    1  UNL1        0.0053
      9 C         139.0816  143.1071  157.9807 C.ar    1  UNL1        0.0105
     10 C         139.7088  144.3446  157.4104 C.ar    1  UNL1        0.0715
     11 C         140.6660  145.1501  158.2381 C.ar    1  UNL1        0.0469
     12 C         140.9960  144.7180  159.6360 C.ar    1  UNL1        0.1358
     13 O         141.9532  145.5235  160.4637 O.3     1  UNL1       -0.5054
     14 H         142.3450  146.2965  160.1075 H       1  UNL1        0.2922
     15 C         139.3787  144.7766  156.0124 C.1     1  UNL1        0.1005
     16 N         139.0487  145.2087  154.6144 N.1     1  UNL1       -0.1908
     17 C         143.0407  142.0513  166.3764 C.3     1  UNL1        0.1135
     18 N         141.6892  141.7525  165.7985 N.pl3   1  UNL1       -0.2916
     19 C         140.6677  141.0218  166.6185 C.3     1  UNL1        0.0768
     20 C         140.5418  141.3052  168.0861 C.3     1  UNL1        0.0342
     21 C         139.5202  140.5745  168.9062 C.3     1  UNL1        0.0435
     22 C         138.7123  140.1440  170.0944 C.3     1  UNL1        0.0158
     23 C         140.1353  141.4392  169.9663 C.3     1  UNL1        0.0158
     24 N         138.6246  139.5603  168.2587 N.3     1  UNL1       -0.3015
     25 C         138.7505  139.2769  166.7910 C.3     1  UNL1        0.0435
     26 C         138.4902  138.6660  165.4460 C.3     1  UNL1        0.0158
     27 C         137.6386  138.3340  167.1440 C.3     1  UNL1        0.0158
     28 C         139.7720  140.0076  165.9710 C.3     1  UNL1        0.0342
     29 H         137.6659  139.8701  168.4176 H       1  UNL1        0.1231
@<TRIPOS>BOND
     1    17    18    1
     2    18     1    1
     3     1     2   ar
     4     2     3   ar
     5     3     4   ar
     6     4     7    1
     7     7     8   ar
     8     8     9   ar
     9     9    10   ar
    10    10    15    1
    11    15    16    3
    12    10    11   ar
    13    11    12   ar
    14    12    13    1
    15     4     5   ar
    16     5     6   ar
    17    18    19    1
    18    19    20    1
    19    20    21    1
    20    21    22    1
    21    21    23    1
    22    21    24    1
    23    24    25    1
    24    25    26    1
    25    25    27    1
    26    25    28    1
    27     6     1   ar
    28    28    19    1
    29    12     7   ar
    30    13    14    1
    31    24    29    1
@<TRIPOS>MOLECULE
*****
 29 31 0 0 0
SMALL
GASTEIGER

@<TRIPOS>ATOM
      1 C         142.0325  140.7796  164.5170 C.ar    1  UNL1        0.1535
      2 C         142.1315  140.1508  163.1588 C.ar    1  UNL1        0.0377
      3 C         141.7832  140.9473  161.9364 C.ar    1  UNL1        0.0239
      4 C         141.3360  142.3726  162.0723 C.ar    1  UNL1        0.1059
      5 N         141.2371  143.0014  163.4305 N.ar    1  UNL1       -0.1467
      6 N         141.5853  142.2049  164.6528 N.ar    1  UNL1       -0.1329
      7 C         140.9877  143.1692  160.8498 C.ar    1  UNL1        0.0531
      8 C         140.0196  142.6174  159.8458 C.ar    1  UNL1        0.0053
      9 C         139.6713  143.4139  158.6233 C.ar    1  UNL1        0.0105
     10 C         140.2912  144.7623  158.4050 C.ar    1  UNL1        0.0715
     11 C         141.2594  145.3140  159.4091 C.ar    1  UNL1        0.0469
     12 C         141.6077  144.5175  160.6315 C.ar    1  UNL1        0.1358
     13 O         142.5759  145.0693  161.6356 O.3     1  UNL1       -0.5054
     14 H         142.9631  145.9116  161.4993 H       1  UNL1        0.2922
     15 C         139.9430  145.5588  157.1827 C.1     1  UNL1        0.1005
     16 N         139.5948  146.3553  155.9603 N.1     1  UNL1       -0.1908
     17 C         143.2600  138.7735  165.6212 C.3     1  UNL1        0.1135
     18 N         142.3808  139.9830  165.7394 N.pl3   1  UNL1       -0.2916
     19 C         141.8499  140.3961  167.0801 C.3     1  UNL1        0.0768
     20 C         140.4628  140.0006  167.4918 C.3     1  UNL1        0.0342
     21 C         139.9319  140.4136  168.8325 C.3     1  UNL1        0.0435
     22 C         138.9900  140.5640  169.9902 C.3     1  UNL1        0.0158
     23 C         138.7486  139.6572  168.3055 C.3     1  UNL1        0.0158
     24 N         140.7880  141.2222  169.7615 N.3     1  UNL1       -0.3015
     25 C         142.1752  141.6178  169.3499 C.3     1  UNL1        0.0435
     26 C         143.5428  142.2307  169.4112 C.3     1  UNL1        0.0158
     27 C         142.1192  142.2437  170.7119 C.3     1  UNL1        0.0158
     28 C         142.7061  141.2047  168.0092 C.3     1  UNL1        0.0342
     29 H         140.8789  140.6830  170.6226 H       1  UNL1        0.1231
@<TRIPOS>BOND
     1    17    18    1
     2    18     1    1
     3     1     2   ar
     4     2     3   ar
     5     3     4   ar
     6     4     7    1
     7     7     8   ar
     8     8     9   ar
     9     9    10   ar
    10    10    15    1
    11    15    16    3
    12    10    11   ar
    13    11    12   ar
    14    12    13    1
    15     4     5   ar
    16     5     6   ar
    17    18    19    1
    18    19    20    1
    19    20    21    1
    20    21    22    1
    21    21    23    1
    22    21    24    1
    23    24    25    1
    24    25    26    1
    25    25    27    1
    26    25    28    1
    27     6     1   ar
    28    28    19    1
    29    12     7   ar
    30    13    14    1
    31    24    29    1
@<TRIPOS>MOLECULE
*****
 29 31 0 0 0
SMALL
GASTEIGER

@<TRIPOS>ATOM
      1 C         139.4275  141.2262  164.3767 C.ar    1  UNL1        0.1535
      2 C         140.2126  140.6477  163.2370 C.ar    1  UNL1        0.0377
      3 C         140.3823  141.4313  161.9693 C.ar    1  UNL1        0.0239
      4 C         139.7670  142.7932  161.8412 C.ar    1  UNL1        0.1059
      5 N         138.9820  143.3717  162.9810 N.ar    1  UNL1       -0.1467
      6 N         138.8122  142.5882  164.2487 N.ar    1  UNL1       -0.1329
      7 C         139.9368  143.5768  160.5734 C.ar    1  UNL1        0.0531
      8 C         139.4116  143.0313  159.2786 C.ar    1  UNL1        0.0053
      9 C         139.5814  143.8148  158.0108 C.ar    1  UNL1        0.0105
     10 C         140.2764  145.1438  158.0378 C.ar    1  UNL1        0.0715
     11 C         140.8015  145.6893  159.3327 C.ar    1  UNL1        0.0469
     12 C         140.6317  144.9058  160.6005 C.ar    1  UNL1        0.1358
     13 O         141.1569  145.4513  161.8954 O.3     1  UNL1       -0.5054
     14 H         141.5911  146.2815  161.9123 H       1  UNL1        0.2922
     15 C         140.4461  145.9274  156.7701 C.1     1  UNL1        0.1005
     16 N         140.6159  146.7109  155.5023 N.1     1  UNL1       -0.1908
     17 C         138.2860  139.3012  165.6964 C.3     1  UNL1        0.1135
     18 N         139.2577  140.4427  165.6446 N.pl3   1  UNL1       -0.2916
     19 C         140.0598  140.8007  166.8606 C.3     1  UNL1        0.0768
     20 C         141.4015  141.4538  166.7085 C.3     1  UNL1        0.0342
     21 C         142.2035  141.8118  167.9245 C.3     1  UNL1        0.0435
     22 C         143.3286  142.3355  168.7669 C.3     1  UNL1        0.0158
     23 C         143.1339  142.2889  166.8490 C.3     1  UNL1        0.0158
     24 N         141.6638  141.5166  169.2925 N.3     1  UNL1       -0.3015
     25 C         140.3220  140.8634  169.4446 C.3     1  UNL1        0.0435
     26 C         139.1130  140.2620  170.0978 C.3     1  UNL1        0.0158
     27 C         140.7042  141.0126  170.8874 C.3     1  UNL1        0.0158
     28 C         139.5200  140.5054  168.2286 C.3     1  UNL1        0.0342
     29 H         141.6159  142.4066  169.7885 H       1  UNL1        0.1231
@<TRIPOS>BOND
     1    17    18    1
     2    18     1    1
     3     1     2   ar
     4     2     3   ar
     5     3     4   ar
     6     4     7    1
     7     7     8   ar
     8     8     9   ar
     9     9    10   ar
    10    10    15    1
    11    15    16    3
    12    10    11   ar
    13    11    12   ar
    14    12    13    1
    15     4     5   ar
    16     5     6   ar
    17    18    19    1
    18    19    20    1
    19    20    21    1
    20    21    22    1
    21    21    23    1
    22    21    24    1
    23    24    25    1
    24    25    26    1
    25    25    27    1
    26    25    28    1
    27     6     1   ar
    28    28    19    1
    29    12     7   ar
    30    13    14    1
    31    24    29    1
@<TRIPOS>MOLECULE
*****
 29 31 0 0 0
SMALL
GASTEIGER

@<TRIPOS>ATOM
      1 C         139.4770  140.1613  161.7753 C.ar    1  UNL1        0.1535
      2 C         138.2558  140.2288  162.6436 C.ar    1  UNL1        0.0377
      3 C         138.3927  140.5158  164.1095 C.ar    1  UNL1        0.0239
      4 C         139.7509  140.7353  164.7071 C.ar    1  UNL1        0.1059
      5 N         140.9722  140.6679  163.8388 N.ar    1  UNL1       -0.1467
      6 N         140.8352  140.3809  162.3729 N.ar    1  UNL1       -0.1329
      7 C         139.8878  141.0223  166.1730 C.ar    1  UNL1        0.0531
      8 C         139.4627  139.9961  167.1811 C.ar    1  UNL1        0.0053
      9 C         139.5996  140.2831  168.6470 C.ar    1  UNL1        0.0105
     10 C         140.1616  141.5964  169.1049 C.ar    1  UNL1        0.0715
     11 C         140.5867  142.6226  168.0967 C.ar    1  UNL1        0.0469
     12 C         140.4498  142.3355  166.6309 C.ar    1  UNL1        0.1358
     13 O         140.8749  143.3618  165.6227 O.3     1  UNL1       -0.5054
     14 H         141.2260  144.1821  165.9087 H       1  UNL1        0.2922
     15 C         140.2985  141.8834  170.5707 C.1     1  UNL1        0.1005
     16 N         140.4355  142.1704  172.0366 N.1     1  UNL1       -0.1908
     17 C         139.4183  138.4616  159.8112 C.3     1  UNL1        0.1135
     18 N         139.3401  139.8743  160.3094 N.pl3   1  UNL1       -0.2916
     19 C         139.1251  141.0000  159.3416 C.3     1  UNL1        0.0768
     20 C         138.0388  140.9063  158.3115 C.3     1  UNL1        0.0342
     21 C         137.8237  142.0321  157.3438 C.3     1  UNL1        0.0435
     22 C         137.2351  142.8306  156.2187 C.3     1  UNL1        0.0158
     23 C         136.7481  141.0899  156.8907 C.3     1  UNL1        0.0158
     24 N         138.6950  143.2515  157.4062 N.3     1  UNL1       -0.3015
     25 C         139.7813  143.3452  158.4363 C.3     1  UNL1        0.0435
     26 C         140.9317  143.8963  159.2256 C.3     1  UNL1        0.0158
     27 C         139.9658  144.6623  157.7427 C.3     1  UNL1        0.0158
     28 C         139.9964  142.2195  159.4041 C.3     1  UNL1        0.0342
     29 H         138.0761  144.0481  157.5575 H       1  UNL1        0.1231
@<TRIPOS>BOND
     1    17    18    1
     2    18     1    1
     3     1     2   ar
     4     2     3   ar
     5     3     4   ar
     6     4     7    1
     7     7     8   ar
     8     8     9   ar
     9     9    10   ar
    10    10    15    1
    11    15    16    3
    12    10    11   ar
    13    11    12   ar
    14    12    13    1
    15     4     5   ar
    16     5     6   ar
    17    18    19    1
    18    19    20    1
    19    20    21    1
    20    21    22    1
    21    21    23    1
    22    21    24    1
    23    24    25    1
    24    25    26    1
    25    25    27    1
    26    25    28    1
    27     6     1   ar
    28    28    19    1
    29    12     7   ar
    30    13    14    1
    31    24    29    1
@<TRIPOS>MOLECULE
*****
 29 31 0 0 0
SMALL
GASTEIGER

@<TRIPOS>ATOM
      1 C         139.4885  140.1351  161.7516 C.ar    1  UNL1        0.1535
      2 C         138.2674  140.1881  162.6211 C.ar    1  UNL1        0.0377
      3 C         138.4025  140.4750  164.0872 C.ar    1  UNL1        0.0239
      4 C         139.7588  140.7089  164.6838 C.ar    1  UNL1        0.1059
      5 N         140.9799  140.6559  163.8143 N.ar    1  UNL1       -0.1467
      6 N         140.8447  140.3691  162.3482 N.ar    1  UNL1       -0.1329
      7 C         139.8939  140.9958  166.1499 C.ar    1  UNL1        0.0531
      8 C         139.4310  139.9857  167.1575 C.ar    1  UNL1        0.0053
      9 C         139.5661  140.2726  168.6237 C.ar    1  UNL1        0.0105
     10 C         140.1641  141.5696  169.0821 C.ar    1  UNL1        0.0715
     11 C         140.6270  142.5797  168.0744 C.ar    1  UNL1        0.0469
     12 C         140.4919  142.2928  166.6083 C.ar    1  UNL1        0.1358
     13 O         140.9547  143.3030  165.6006 O.3     1  UNL1       -0.5054
     14 H         141.3283  144.1132  165.8869 H       1  UNL1        0.2922
     15 C         140.2992  141.8565  170.5482 C.1     1  UNL1        0.1005
     16 N         140.4343  142.1434  172.0142 N.1     1  UNL1       -0.1908
     17 C         139.4410  138.4365  159.7863 C.3     1  UNL1        0.1135
     18 N         139.3534  139.8483  160.2855 N.pl3   1  UNL1       -0.2916
     19 C         139.1308  140.9732  159.3186 C.3     1  UNL1        0.0768
     20 C         140.0139  142.1849  159.3614 C.3     1  UNL1        0.0342
     21 C         139.7913  143.3098  158.3945 C.3     1  UNL1        0.0435
     22 C         139.9748  144.6233  157.6938 C.3     1  UNL1        0.0158
     23 C         140.9608  143.8527  159.1609 C.3     1  UNL1        0.0158
     24 N         138.6855  143.2231  157.3847 N.3     1  UNL1       -0.3015
     25 C         137.8023  142.0114  157.3418 C.3     1  UNL1        0.0435
     26 C         136.7101  141.0777  156.9112 C.3     1  UNL1        0.0158
     27 C         137.2003  142.8121  156.2254 C.3     1  UNL1        0.0158
     28 C         138.0249  140.8864  158.3087 C.3     1  UNL1        0.0342
     29 H         139.1195  143.3038  156.4652 H       1  UNL1        0.1231
@<TRIPOS>BOND
     1    17    18    1
     2    18     1    1
     3     1     2   ar
     4     2     3   ar
     5     3     4   ar
     6     4     7    1
     7     7     8   ar
     8     8     9   ar
     9     9    10   ar
    10    10    15    1
    11    15    16    3
    12    10    11   ar
    13    11    12   ar
    14    12    13    1
    15     4     5   ar
    16     5     6   ar
    17    18    19    1
    18    19    20    1
    19    20    21    1
    20    21    22    1
    21    21    23    1
    22    21    24    1
    23    24    25    1
    24    25    26    1
    25    25    27    1
    26    25    28    1
    27     6     1   ar
    28    28    19    1
    29    12     7   ar
    30    13    14    1
    31    24    29    1
@<TRIPOS>MOLECULE
*****
 29 31 0 0 0
SMALL
GASTEIGER

@<TRIPOS>ATOM
      1 C         139.3453  141.0863  164.6147 C.ar    1  UNL1        0.1535
      2 C         138.7119  142.4365  164.4542 C.ar    1  UNL1        0.0377
      3 C         138.8677  143.1897  163.1665 C.ar    1  UNL1        0.0239
      4 C         139.6569  142.5927  162.0391 C.ar    1  UNL1        0.1059
      5 N         140.2902  141.2426  162.1996 N.ar    1  UNL1       -0.1467
      6 N         140.1345  140.4893  163.4873 N.ar    1  UNL1       -0.1329
      7 C         139.8126  143.3460  160.7513 C.ar    1  UNL1        0.0531
      8 C         140.4829  144.6879  160.7437 C.ar    1  UNL1        0.0053
      9 C         140.6387  145.4412  159.4559 C.ar    1  UNL1        0.0105
     10 C         140.1241  144.8525  158.1758 C.ar    1  UNL1        0.0715
     11 C         139.4538  143.5106  158.1834 C.ar    1  UNL1        0.0469
     12 C         139.2981  142.7574  159.4712 C.ar    1  UNL1        0.1358
     13 O         138.6278  141.4154  159.4789 O.3     1  UNL1       -0.5054
     14 H         138.3063  141.0477  158.6792 H       1  UNL1        0.2922
     15 C         140.2799  145.6057  156.8880 C.1     1  UNL1        0.1005
     16 N         140.4356  146.3589  155.6002 N.1     1  UNL1       -0.1908
     17 C         138.1948  139.2148  166.0016 C.3     1  UNL1        0.1135
     18 N         139.1895  140.3330  165.9025 N.pl3   1  UNL1       -0.2916
     19 C         140.0286  140.6981  167.0911 C.3     1  UNL1        0.0768
     20 C         139.5404  140.3925  168.4760 C.3     1  UNL1        0.0342
     21 C         140.3794  140.7575  169.6646 C.3     1  UNL1        0.0435
     22 C         140.8093  140.9078  171.0938 C.3     1  UNL1        0.0158
     23 C         139.2014  140.1391  170.3574 C.3     1  UNL1        0.0158
     24 N         141.7067  141.4282  169.4682 N.3     1  UNL1       -0.3015
     25 C         142.1949  141.7338  168.0832 C.3     1  UNL1        0.0435
     26 C         143.0815  142.2254  166.9776 C.3     1  UNL1        0.0158
     27 C         143.3418  142.2696  168.8878 C.3     1  UNL1        0.0158
     28 C         141.3559  141.3687  166.8946 C.3     1  UNL1        0.0342
     29 H         142.4074  140.8268  169.9015 H       1  UNL1        0.1231
@<TRIPOS>BOND
     1    17    18    1
     2    18     1    1
     3     1     2   ar
     4     2     3   ar
     5     3     4   ar
     6     4     7    1
     7     7     8   ar
     8     8     9   ar
     9     9    10   ar
    10    10    15    1
    11    15    16    3
    12    10    11   ar
    13    11    12   ar
    14    12    13    1
    15     4     5   ar
    16     5     6   ar
    17    18    19    1
    18    19    20    1
    19    20    21    1
    20    21    22    1
    21    21    23    1
    22    21    24    1
    23    24    25    1
    24    25    26    1
    25    25    27    1
    26    25    28    1
    27     6     1   ar
    28    28    19    1
    29    12     7   ar
    30    13    14    1
    31    24    29    1
