@<TRIPOS>MOLECULE
*****
 24 27 0 0 0
SMALL
GASTEIGER

@<TRIPOS>ATOM
      1 C         139.7360  139.6209  166.6973 C.ar    1  UNL1        0.0383
      2 C         138.6088  138.6531  166.4909 C.ar    1  UNL1        0.0079
      3 C         138.4525  137.9537  165.1732 C.ar    1  UNL1        0.0578
      4 C         139.4234  138.2221  164.0618 C.ar    1  UNL1        0.2248
      5 N         140.5506  139.1899  164.2682 N.ar    1  UNL1       -0.2101
      6 C         140.7070  139.8893  165.5859 C.ar    1  UNL1        0.1036
      7 O         140.3614  142.4184  171.9682 O.2     1  UNL1       -0.2711
      8 C         140.2051  141.7190  170.6505 C.2     1  UNL1        0.2671
      9 C         140.8968  142.2529  169.4313 C.3     1  UNL1        0.1163
     10 C         140.7405  141.5535  168.1136 C.2     1  UNL1        0.0043
     11 C         139.8924  140.3202  168.0150 C.2     1  UNL1        0.0983
     12 N         139.2006  139.7863  169.2342 N.2     1  UNL1       -0.1564
     13 N         139.3570  140.4857  170.5519 N.am    1  UNL1       -0.0790
     14 O         139.2670  137.5227  162.7441 O.3     1  UNL1       -0.4639
     15 C         138.9677  138.3144  161.5057 C.3     1  UNL1        0.1703
     16 C         139.9379  138.3128  160.3617 C.3     1  UNL1        0.0609
     17 C         139.6385  139.1045  159.1233 C.3     1  UNL1        0.0758
     18 N         138.3690  139.8977  159.0288 N.3     1  UNL1       -0.2737
     19 C         137.3988  139.8993  160.1728 C.3     1  UNL1        0.0758
     20 C         137.6981  139.1076  161.4112 C.3     1  UNL1        0.0609
     21 C         138.0696  140.6894  157.7904 C.3     1  UNL1        0.0575
     22 C         137.7058  142.1164  157.5059 C.3     1  UNL1        0.0160
     23 C         137.6463  141.8089  156.0389 C.3     1  UNL1        0.0028
     24 C         138.0102  140.3818  156.3235 C.3     1  UNL1        0.0160
@<TRIPOS>BOND
     1     7     8    2
     2     8     9    1
     3     9    10    1
     4    10    11    2
     5    11     1    1
     6     1     2   ar
     7     2     3   ar
     8     3     4   ar
     9     4    14    1
    10    14    15    1
    11    15    16    1
    12    16    17    1
    13    17    18    1
    14    18    21    1
    15    21    22    1
    16    22    23    1
    17    23    24    1
    18    18    19    1
    19    19    20    1
    20     4     5   ar
    21     5     6   ar
    22    11    12    1
    23    12    13    2
    24    13     8    1
    25     6     1   ar
    26    20    15    1
    27    24    21    1
@<TRIPOS>MOLECULE
*****
 24 27 0 0 0
SMALL
GASTEIGER

@<TRIPOS>ATOM
      1 C         139.8903  139.5644  166.6627 C.ar    1  UNL1        0.0383
      2 C         138.6477  138.7927  166.3307 C.ar    1  UNL1        0.0079
      3 C         138.5149  138.1234  164.9949 C.ar    1  UNL1        0.0578
      4 C         139.6249  138.2257  163.9911 C.ar    1  UNL1        0.2248
      5 N         140.8675  138.9974  164.3232 N.ar    1  UNL1       -0.2101
      6 C         141.0002  139.6668  165.6589 C.ar    1  UNL1        0.1036
      7 O         140.4211  142.2420  172.0058 O.2     1  UNL1       -0.2711
      8 C         140.2884  141.5726  170.6700 C.2     1  UNL1        0.2671
      9 C         141.2251  141.9317  169.5548 C.3     1  UNL1        0.1163
     10 C         141.0923  141.2623  168.2191 C.2     1  UNL1        0.0043
     11 C         140.0230  140.2338  167.9985 C.2     1  UNL1        0.0983
     12 N         139.0864  139.8748  169.1137 N.2     1  UNL1       -0.1564
     13 N         139.2191  140.5441  170.4495 N.am    1  UNL1       -0.0790
     14 O         139.4922  137.5563  162.6553 O.3     1  UNL1       -0.4639
     15 C         139.0997  138.3584  161.4502 C.3     1  UNL1        0.1703
     16 C         137.7871  139.0842  161.4272 C.3     1  UNL1        0.0609
     17 C         137.3946  139.8863  160.2220 C.3     1  UNL1        0.0758
     18 N         138.3147  139.9628  159.0398 N.3     1  UNL1       -0.2737
     19 C         139.6272  139.2371  159.0627 C.3     1  UNL1        0.0758
     20 C         140.0198  138.4349  160.2680 C.3     1  UNL1        0.0609
     21 C         137.9222  140.7650  157.8345 C.3     1  UNL1        0.0575
     22 C         137.6052  140.4440  156.4041 C.3     1  UNL1        0.0160
     23 C         137.3671  141.8995  156.1302 C.3     1  UNL1        0.0028
     24 C         137.6841  142.2204  157.5608 C.3     1  UNL1        0.0160
@<TRIPOS>BOND
     1     7     8    2
     2     8     9    1
     3     9    10    1
     4    10    11    2
     5    11     1    1
     6     1     2   ar
     7     2     3   ar
     8     3     4   ar
     9     4    14    1
    10    14    15    1
    11    15    16    1
    12    16    17    1
    13    17    18    1
    14    18    21    1
    15    21    22    1
    16    22    23    1
    17    23    24    1
    18    18    19    1
    19    19    20    1
    20     4     5   ar
    21     5     6   ar
    22    11    12    1
    23    12    13    2
    24    13     8    1
    25     6     1   ar
    26    20    15    1
    27    24    21    1
@<TRIPOS>MOLECULE
*****
 24 27 0 0 0
SMALL
GASTEIGER

@<TRIPOS>ATOM
      1 C         140.4126  141.1821  166.7654 C.ar    1  UNL1        0.0383
      2 C         139.5238  140.5283  165.7492 C.ar    1  UNL1        0.0079
      3 C         138.7535  141.3692  164.7747 C.ar    1  UNL1        0.0578
      4 C         138.8720  142.8639  164.8165 C.ar    1  UNL1        0.2248
      5 N         139.7608  143.5177  165.8327 N.ar    1  UNL1       -0.2101
      6 C         140.5310  142.6768  166.8071 C.ar    1  UNL1        0.1036
      7 O         143.4937  137.8184  170.6631 O.2     1  UNL1       -0.2711
      8 C         142.7234  138.6593  169.6887 C.2     1  UNL1        0.2671
      9 C         141.5136  139.4190  170.1460 C.3     1  UNL1        0.1163
     10 C         140.7433  140.2599  169.1716 C.2     1  UNL1        0.0043
     11 C         141.1829  140.3411  167.7398 C.2     1  UNL1        0.0983
     12 N         142.3926  139.5815  167.2824 N.2     1  UNL1       -0.1564
     13 N         143.1629  138.7405  168.2568 N.am    1  UNL1       -0.0790
     14 O         138.1017  143.7048  163.8421 O.3     1  UNL1       -0.4639
     15 C         138.7347  144.1231  162.5481 C.3     1  UNL1        0.1703
     16 C         139.2773  145.5130  162.3934 C.3     1  UNL1        0.0609
     17 C         139.9103  145.9313  161.0995 C.3     1  UNL1        0.0758
     18 N         140.0008  144.9598  159.9602 N.3     1  UNL1       -0.2737
     19 C         139.4583  143.5700  160.1149 C.3     1  UNL1        0.0758
     20 C         138.8252  143.1516  161.4089 C.3     1  UNL1        0.0609
     21 C         140.6339  145.3782  158.6663 C.3     1  UNL1        0.0575
     22 C         142.0094  145.2767  158.0769 C.3     1  UNL1        0.0160
     23 C         141.5290  145.9699  156.8364 C.3     1  UNL1        0.0028
     24 C         140.1534  146.0713  157.4258 C.3     1  UNL1        0.0160
@<TRIPOS>BOND
     1     7     8    2
     2     8     9    1
     3     9    10    1
     4    10    11    2
     5    11     1    1
     6     1     2   ar
     7     2     3   ar
     8     3     4   ar
     9     4    14    1
    10    14    15    1
    11    15    16    1
    12    16    17    1
    13    17    18    1
    14    18    21    1
    15    21    22    1
    16    22    23    1
    17    23    24    1
    18    18    19    1
    19    19    20    1
    20     4     5   ar
    21     5     6   ar
    22    11    12    1
    23    12    13    2
    24    13     8    1
    25     6     1   ar
    26    20    15    1
    27    24    21    1
@<TRIPOS>MOLECULE
*****
 24 27 0 0 0
SMALL
GASTEIGER

@<TRIPOS>ATOM
      1 C         140.1521  139.6640  166.6333 C.ar    1  UNL1        0.0383
      2 C         138.9727  138.9692  166.0200 C.ar    1  UNL1        0.0079
      3 C         139.1533  138.1275  164.7916 C.ar    1  UNL1        0.0578
      4 C         140.5134  137.9807  164.1764 C.ar    1  UNL1        0.2248
      5 N         141.6929  138.6755  164.7897 N.ar    1  UNL1       -0.2101
      6 C         141.5122  139.5171  166.0181 C.ar    1  UNL1        0.1036
      7 O         139.4295  143.0306  171.5469 O.2     1  UNL1       -0.2711
      8 C         139.6102  142.1889  170.3185 C.2     1  UNL1        0.2671
      9 C         140.3944  142.7189  169.1549 C.3     1  UNL1        0.1163
     10 C         140.5751  141.8773  167.9265 C.2     1  UNL1        0.0043
     11 C         139.9715  140.5056  167.8617 C.2     1  UNL1        0.0983
     12 N         139.1872  139.9756  169.0253 N.2     1  UNL1       -0.1564
     13 N         139.0066  140.8173  170.2537 N.am    1  UNL1       -0.0790
     14 O         140.6941  137.1390  162.9480 O.3     1  UNL1       -0.4639
     15 C         141.1032  137.7784  161.6543 C.3     1  UNL1        0.1703
     16 C         140.0711  138.4220  160.7764 C.3     1  UNL1        0.0609
     17 C         140.4803  139.0614  159.4827 C.3     1  UNL1        0.0758
     18 N         141.9215  139.0572  159.0668 N.3     1  UNL1       -0.2737
     19 C         142.9535  138.4136  159.9446 C.3     1  UNL1        0.0758
     20 C         142.5444  137.7742  161.2384 C.3     1  UNL1        0.0609
     21 C         142.3306  139.6966  157.7730 C.3     1  UNL1        0.0575
     22 C         143.2816  139.3419  156.6687 C.3     1  UNL1        0.0160
     23 C         142.9091  140.6009  155.9434 C.3     1  UNL1        0.0028
     24 C         141.9580  140.9557  157.0477 C.3     1  UNL1        0.0160
@<TRIPOS>BOND
     1     7     8    2
     2     8     9    1
     3     9    10    1
     4    10    11    2
     5    11     1    1
     6     1     2   ar
     7     2     3   ar
     8     3     4   ar
     9     4    14    1
    10    14    15    1
    11    15    16    1
    12    16    17    1
    13    17    18    1
    14    18    21    1
    15    21    22    1
    16    22    23    1
    17    23    24    1
    18    18    19    1
    19    19    20    1
    20     4     5   ar
    21     5     6   ar
    22    11    12    1
    23    12    13    2
    24    13     8    1
    25     6     1   ar
    26    20    15    1
    27    24    21    1
@<TRIPOS>MOLECULE
*****
 24 27 0 0 0
SMALL
GASTEIGER

@<TRIPOS>ATOM
      1 C         142.6755  141.9318  166.5434 C.ar    1  UNL1        0.0383
      2 C         143.7722  142.8640  166.1212 C.ar    1  UNL1        0.0079
      3 C         144.3011  142.8132  164.7185 C.ar    1  UNL1        0.0578
      4 C         143.7334  141.8302  163.7380 C.ar    1  UNL1        0.2248
      5 N         142.6367  140.8981  164.1602 N.ar    1  UNL1       -0.2101
      6 C         142.1078  140.9489  165.5629 C.ar    1  UNL1        0.1036
      7 O         140.5598  142.1351  172.1543 O.2     1  UNL1       -0.2711
      8 C         141.0887  142.0843  170.7516 C.2     1  UNL1        0.2671
      9 C         140.3602  142.7941  169.6492 C.3     1  UNL1        0.1163
     10 C         140.8892  142.7433  168.2465 C.2     1  UNL1        0.0043
     11 C         142.1466  141.9826  167.9462 C.2     1  UNL1        0.0983
     12 N         142.8751  141.2728  169.0486 N.2     1  UNL1       -0.1564
     13 N         142.3461  141.3236  170.4513 N.am    1  UNL1       -0.0790
     14 O         144.2623  141.7794  162.3352 O.3     1  UNL1       -0.4639
     15 C         143.6140  142.5988  161.2591 C.3     1  UNL1        0.1703
     16 C         144.0986  142.4956  159.8432 C.3     1  UNL1        0.0609
     17 C         143.4502  143.3151  158.7670 C.3     1  UNL1        0.0758
     18 N         142.3174  144.2377  159.1067 N.3     1  UNL1       -0.2737
     19 C         141.8328  144.3410  160.5225 C.3     1  UNL1        0.0758
     20 C         142.4812  143.5215  161.5987 C.3     1  UNL1        0.0609
     21 C         141.6691  145.0572  158.0304 C.3     1  UNL1        0.0575
     22 C         142.0499  145.4755  156.6413 C.3     1  UNL1        0.0160
     23 C         140.7522  146.2161  156.5085 C.3     1  UNL1        0.0028
     24 C         140.3714  145.7978  157.8977 C.3     1  UNL1        0.0160
@<TRIPOS>BOND
     1     7     8    2
     2     8     9    1
     3     9    10    1
     4    10    11    2
     5    11     1    1
     6     1     2   ar
     7     2     3   ar
     8     3     4   ar
     9     4    14    1
    10    14    15    1
    11    15    16    1
    12    16    17    1
    13    17    18    1
    14    18    21    1
    15    21    22    1
    16    22    23    1
    17    23    24    1
    18    18    19    1
    19    19    20    1
    20     4     5   ar
    21     5     6   ar
    22    11    12    1
    23    12    13    2
    24    13     8    1
    25     6     1   ar
    26    20    15    1
    27    24    21    1
@<TRIPOS>MOLECULE
*****
 24 27 0 0 0
SMALL
GASTEIGER

@<TRIPOS>ATOM
      1 C         139.2533  140.1991  166.6024 C.ar    1  UNL1        0.0383
      2 C         139.1767  141.1669  165.4590 C.ar    1  UNL1        0.0079
      3 C         138.7808  140.6860  164.0945 C.ar    1  UNL1        0.0578
      4 C         138.4614  139.2372  163.8733 C.ar    1  UNL1        0.2248
      5 N         138.5380  138.2694  165.0166 N.ar    1  UNL1       -0.2101
      6 C         138.9339  138.7503  166.3812 C.ar    1  UNL1        0.1036
      7 O         140.8369  142.1227  172.0605 O.2     1  UNL1       -0.2711
      8 C         140.4410  141.6418  170.6960 C.2     1  UNL1        0.2671
      9 C         140.8615  142.4106  169.4786 C.3     1  UNL1        0.1163
     10 C         140.4656  141.9296  168.1140 C.2     1  UNL1        0.0043
     11 C         139.6492  140.6800  167.9669 C.2     1  UNL1        0.0983
     12 N         139.2286  139.9113  169.1843 N.2     1  UNL1       -0.1564
     13 N         139.6245  140.3922  170.5488 N.am    1  UNL1       -0.0790
     14 O         138.0655  138.7563  162.5087 O.3     1  UNL1       -0.4639
     15 C         139.0615  138.7789  161.3874 C.3     1  UNL1        0.1703
     16 C         140.4543  138.2687  161.6108 C.3     1  UNL1        0.0609
     17 C         141.4502  138.2913  160.4894 C.3     1  UNL1        0.0758
     18 N         141.0534  138.8241  159.1446 N.3     1  UNL1       -0.2737
     19 C         139.6607  139.3343  158.9211 C.3     1  UNL1        0.0758
     20 C         138.6647  139.3118  160.0425 C.3     1  UNL1        0.0609
     21 C         142.0495  138.8467  158.0231 C.3     1  UNL1        0.0575
     22 C         142.7814  137.8025  157.2334 C.3     1  UNL1        0.0160
     23 C         143.4580  138.8787  156.4373 C.3     1  UNL1        0.0028
     24 C         142.7261  139.9230  157.2270 C.3     1  UNL1        0.0160
@<TRIPOS>BOND
     1     7     8    2
     2     8     9    1
     3     9    10    1
     4    10    11    2
     5    11     1    1
     6     1     2   ar
     7     2     3   ar
     8     3     4   ar
     9     4    14    1
    10    14    15    1
    11    15    16    1
    12    16    17    1
    13    17    18    1
    14    18    21    1
    15    21    22    1
    16    22    23    1
    17    23    24    1
    18    18    19    1
    19    19    20    1
    20     4     5   ar
    21     5     6   ar
    22    11    12    1
    23    12    13    2
    24    13     8    1
    25     6     1   ar
    26    20    15    1
    27    24    21    1
@<TRIPOS>MOLECULE
*****
 24 27 0 0 0
SMALL
GASTEIGER

@<TRIPOS>ATOM
      1 C         140.1976  141.5028  166.9960 C.ar    1  UNL1        0.0383
      2 C         139.4874  140.2035  167.2357 C.ar    1  UNL1        0.0079
      3 C         138.6523  139.5936  166.1491 C.ar    1  UNL1        0.0578
      4 C         138.5274  140.2831  164.8228 C.ar    1  UNL1        0.2248
      5 N         139.2375  141.5824  164.5832 N.ar    1  UNL1       -0.2101
      6 C         140.0726  142.1922  165.6698 C.ar    1  UNL1        0.1036
      7 O         143.5379  143.9421  171.3425 O.2     1  UNL1       -0.2711
      8 C         142.7028  143.3323  170.2559 C.2     1  UNL1        0.2671
      9 C         143.3076  142.3297  169.3184 C.3     1  UNL1        0.1163
     10 C         142.4726  141.7198  168.2318 C.2     1  UNL1        0.0043
     11 C         141.0326  142.1126  168.0826 C.2     1  UNL1        0.0983
     12 N         140.4278  143.1152  169.0201 N.2     1  UNL1       -0.1564
     13 N         141.2629  143.7251  170.1067 N.am    1  UNL1       -0.0790
     14 O         137.6923  139.6732  163.7362 O.3     1  UNL1       -0.4639
     15 C         138.3038  139.3720  162.4000 C.3     1  UNL1        0.1703
     16 C         139.4601  138.4216  162.3015 C.3     1  UNL1        0.0609
     17 C         140.0716  138.1203  160.9653 C.3     1  UNL1        0.0758
     18 N         139.5267  138.7694  159.7277 N.3     1  UNL1       -0.2737
     19 C         138.3704  139.7197  159.8262 C.3     1  UNL1        0.0758
     20 C         137.7589  140.0210  161.1624 C.3     1  UNL1        0.0609
     21 C         140.1382  138.4681  158.3915 C.3     1  UNL1        0.0575
     22 C         139.6106  138.2977  156.9978 C.3     1  UNL1        0.0160
     23 C         141.0031  138.0420  156.5019 C.3     1  UNL1        0.0028
     24 C         141.5306  138.2124  157.8957 C.3     1  UNL1        0.0160
@<TRIPOS>BOND
     1     7     8    2
     2     8     9    1
     3     9    10    1
     4    10    11    2
     5    11     1    1
     6     1     2   ar
     7     2     3   ar
     8     3     4   ar
     9     4    14    1
    10    14    15    1
    11    15    16    1
    12    16    17    1
    13    17    18    1
    14    18    21    1
    15    21    22    1
    16    22    23    1
    17    23    24    1
    18    18    19    1
    19    19    20    1
    20     4     5   ar
    21     5     6   ar
    22    11    12    1
    23    12    13    2
    24    13     8    1
    25     6     1   ar
    26    20    15    1
    27    24    21    1
@<TRIPOS>MOLECULE
*****
 24 27 0 0 0
SMALL
GASTEIGER

@<TRIPOS>ATOM
      1 C         142.8480  140.8434  166.9012 C.ar    1  UNL1        0.0383
      2 C         143.2914  141.9463  165.9864 C.ar    1  UNL1        0.0079
      3 C         143.9163  141.6175  164.6630 C.ar    1  UNL1        0.0578
      4 C         144.0979  140.1857  164.2545 C.ar    1  UNL1        0.2248
      5 N         143.6545  139.0828  165.1692 N.ar    1  UNL1       -0.2101
      6 C         143.0296  139.4116  166.4926 C.ar    1  UNL1        0.1036
      7 O         140.3482  142.1587  172.1947 O.2     1  UNL1       -0.2711
      8 C         140.9732  141.8299  170.8713 C.2     1  UNL1        0.2671
      9 C         141.9810  142.7612  170.2657 C.3     1  UNL1        0.1163
     10 C         142.6059  142.4324  168.9423 C.2     1  UNL1        0.0043
     11 C         142.2231  141.1722  168.2246 C.2     1  UNL1        0.0983
     12 N         141.2152  140.2408  168.8302 N.2     1  UNL1       -0.1564
     13 N         140.5903  140.5697  170.1535 N.am    1  UNL1       -0.0790
     14 O         144.7228  139.8569  162.9311 O.3     1  UNL1       -0.4639
     15 C         143.8602  139.4382  161.7776 C.3     1  UNL1        0.1703
     16 C         143.8510  138.0069  161.3287 C.3     1  UNL1        0.0609
     17 C         142.9883  137.5883  160.1753 C.3     1  UNL1        0.0758
     18 N         142.1348  138.6008  159.4707 N.3     1  UNL1       -0.2737
     19 C         142.1440  140.0320  159.9196 C.3     1  UNL1        0.0758
     20 C         143.0067  140.4507  161.0731 C.3     1  UNL1        0.0609
     21 C         141.2722  138.1820  158.3172 C.3     1  UNL1        0.0575
     22 C         139.8198  138.3267  157.9716 C.3     1  UNL1        0.0160
     23 C         140.0522  137.5898  156.6859 C.3     1  UNL1        0.0028
     24 C         141.5047  137.4451  157.0315 C.3     1  UNL1        0.0160
@<TRIPOS>BOND
     1     7     8    2
     2     8     9    1
     3     9    10    1
     4    10    11    2
     5    11     1    1
     6     1     2   ar
     7     2     3   ar
     8     3     4   ar
     9     4    14    1
    10    14    15    1
    11    15    16    1
    12    16    17    1
    13    17    18    1
    14    18    21    1
    15    21    22    1
    16    22    23    1
    17    23    24    1
    18    18    19    1
    19    19    20    1
    20     4     5   ar
    21     5     6   ar
    22    11    12    1
    23    12    13    2
    24    13     8    1
    25     6     1   ar
    26    20    15    1
    27    24    21    1
@<TRIPOS>MOLECULE
*****
 24 27 0 0 0
SMALL
GASTEIGER

@<TRIPOS>ATOM
      1 C         138.3817  142.0333  160.6084 C.ar    1  UNL1        0.0383
      2 C         138.8461  142.6771  159.3357 C.ar    1  UNL1        0.0079
      3 C         138.8596  141.8902  158.0587 C.ar    1  UNL1        0.0578
      4 C         138.4087  140.4597  158.0544 C.ar    1  UNL1        0.2248
      5 N         137.9443  139.8159  159.3271 N.ar    1  UNL1       -0.2101
      6 C         137.9308  140.6027  160.6041 C.ar    1  UNL1        0.1036
      7 O         138.3275  145.1805  165.7164 O.2     1  UNL1       -0.2711
      8 C         138.3411  144.3937  164.4394 C.2     1  UNL1        0.2671
      9 C         137.7900  142.9989  164.4120 C.3     1  UNL1        0.1163
     10 C         137.8035  142.2121  163.1350 C.2     1  UNL1        0.0043
     11 C         138.3681  142.8201  161.8854 C.2     1  UNL1        0.0983
     12 N         138.9192  144.2149  161.9128 N.2     1  UNL1       -0.1564
     13 N         138.9057  145.0017  163.1898 N.am    1  UNL1       -0.0790
     14 O         138.4223  139.6728  156.7774 O.3     1  UNL1       -0.4639
     15 C         139.4142  138.5633  156.5906 C.3     1  UNL1        0.1703
     16 C         140.6674  138.5310  157.4143 C.3     1  UNL1        0.0609
     17 C         141.6593  137.4214  157.2275 C.3     1  UNL1        0.0758
     18 N         141.3980  136.3440  156.2170 N.3     1  UNL1       -0.2737
     19 C         140.1448  136.3763  155.3934 C.3     1  UNL1        0.0758
     20 C         139.1529  137.4859  155.5801 C.3     1  UNL1        0.0609
     21 C         142.3900  135.2344  156.0303 C.3     1  UNL1        0.0575
     22 C         143.4581  134.6125  156.8800 C.3     1  UNL1        0.0160
     23 C         143.7927  133.6652  155.7661 C.3     1  UNL1        0.0028
     24 C         142.7245  134.2872  154.9163 C.3     1  UNL1        0.0160
@<TRIPOS>BOND
     1     7     8    2
     2     8     9    1
     3     9    10    1
     4    10    11    2
     5    11     1    1
     6     1     2   ar
     7     2     3   ar
     8     3     4   ar
     9     4    14    1
    10    14    15    1
    11    15    16    1
    12    16    17    1
    13    17    18    1
    14    18    21    1
    15    21    22    1
    16    22    23    1
    17    23    24    1
    18    18    19    1
    19    19    20    1
    20     4     5   ar
    21     5     6   ar
    22    11    12    1
    23    12    13    2
    24    13     8    1
    25     6     1   ar
    26    20    15    1
    27    24    21    1
