@<TRIPOS>MOLECULE
*****
 39 44 0 0 0
SMALL
GASTEIGER

@<TRIPOS>ATOM
      1 C         139.9555  138.0649  164.2690 C.3     1  UNL1        0.1438
      2 C         141.3441  138.0935  164.8355 C.3     1  UNL1        0.0358
      3 C         142.5288  137.9691  163.9240 C.3     1  UNL1        0.0198
      4 C         142.3249  137.8159  162.4457 C.3     1  UNL1        0.0701
      5 C         140.9363  137.7873  161.8792 C.3     1  UNL1        0.0198
      6 C         139.7516  137.9117  162.7909 C.3     1  UNL1        0.0358
      7 C         141.6449  137.8806  162.9055 C.3     1  UNL1        0.1567
      8 O         140.5737  137.9931  163.7298 O.3     1  UNL1       -0.3502
      9 C         138.7709  138.1893  165.1806 C.2     1  UNL1        0.1792
     10 O         138.2327  136.9769  165.8808 O.2     1  UNL1       -0.2933
     11 C         138.1243  139.5263  165.3920 C.3     1  UNL1        0.0971
     12 C         138.5560  143.1699  162.7866 C.ar    1  UNL1        0.2250
     13 C         139.3771  144.3342  163.2557 C.ar    1  UNL1        0.0593
     14 C         140.0542  144.2841  164.5932 C.ar    1  UNL1        0.0254
     15 C         139.9104  143.0696  165.4616 C.ar    1  UNL1        0.0990
     16 N         140.5875  143.0195  166.7992 N.ar    1  UNL1       -0.2400
     17 C         140.4437  141.8050  167.6676 C.ar    1  UNL1        0.1281
     18 C         139.6226  140.6405  167.1985 C.ar    1  UNL1        0.1571
     19 F         139.4787  139.4260  168.0670 F       1  UNL1       -0.2028
     20 C         138.9454  140.6907  165.8610 C.ar    1  UNL1        0.0335
     21 C         139.0893  141.9052  164.9926 C.ar    1  UNL1        0.1006
     22 N         138.4121  141.9554  163.6551 N.ar    1  UNL1       -0.2104
     23 C         138.4881  142.5159  160.2732 C.3     1  UNL1        0.2542
     24 O         137.8788  143.2200  161.4491 O.3     1  UNL1       -0.4561
     25 N         143.5096  137.6915  161.5342 N.3     1  UNL1       -0.2926
     26 H         143.2766  136.9770  160.8445 H       1  UNL1        0.1236
     27 C         143.9976  138.8871  160.7711 C.3     1  UNL1        0.1152
     28 C         143.7661  140.2672  161.3111 C.ar    1  UNL1        0.0765
     29 C         142.8650  141.2175  160.5795 C.ar    1  UNL1        0.0193
     30 C         142.6334  142.5976  161.1195 C.ar    1  UNL1        0.0411
     31 C         143.3029  143.0275  162.3911 C.ar    1  UNL1        0.1708
     32 C         144.2039  142.0773  163.1227 C.ar    1  UNL1        0.1682
     33 N         144.4355  140.6971  162.5827 N.ar    1  UNL1       -0.2304
     34 N         144.8734  142.5073  164.3943 N.am    1  UNL1       -0.2639
     35 C         144.6418  143.8874  164.9343 C.2     1  UNL1        0.2718
     36 O         145.3113  144.3173  166.2059 O.2     1  UNL1       -0.2707
     37 C         143.7408  144.8376  164.2027 C.3     1  UNL1        0.2898
     38 O         143.0713  144.4077  162.9311 O.3     1  UNL1       -0.4628
     39 H         145.4648  141.8836  164.8744 H       1  UNL1        0.1565
@<TRIPOS>BOND
     1    23    24    1
     2    24    12    1
     3    12    13   ar
     4    13    14   ar
     5    14    15   ar
     6    15    16   ar
     7    16    17   ar
     8    17    18   ar
     9    18    19    1
    10    18    20   ar
    11    20    11    1
    12    11     9    1
    13     9    10    2
    14     9     1    1
    15     1     2    1
    16     2     3    1
    17     3     4    1
    18     4    25    1
    19    25    27    1
    20    27    28    1
    21    28    29   ar
    22    29    30   ar
    23    30    31   ar
    24    31    32   ar
    25    32    33   ar
    26    32    34    1
    27    34    35   am
    28    35    36    2
    29    35    37    1
    30    37    38    1
    31     4     5    1
    32     5     6    1
    33     4     7    1
    34     7     8    1
    35    20    21   ar
    36    21    22   ar
    37    22    12   ar
    38    21    15   ar
    39     6     1    1
    40     8     1    1
    41    33    28   ar
    42    38    31    1
    43    25    26    1
    44    34    39    1
@<TRIPOS>MOLECULE
*****
 39 44 0 0 0
SMALL
GASTEIGER

@<TRIPOS>ATOM
      1 C         139.3591  137.9470  164.6851 C.3     1  UNL1        0.1438
      2 C         138.9404  138.1314  163.2566 C.3     1  UNL1        0.0358
      3 C         139.9334  137.9254  162.1514 C.3     1  UNL1        0.0198
      4 C         141.3452  137.5350  162.4747 C.3     1  UNL1        0.0701
      5 C         141.7639  137.3506  163.9033 C.3     1  UNL1        0.0198
      6 C         140.7708  137.5566  165.0085 C.3     1  UNL1        0.0358
      7 C         140.8367  137.6367  163.1143 C.3     1  UNL1        0.1567
      8 O         139.9388  137.8230  164.1136 O.3     1  UNL1       -0.3502
      9 C         138.3661  138.1530  165.7903 C.2     1  UNL1        0.1792
     10 O         137.6805  136.9727  166.4122 O.2     1  UNL1       -0.2933
     11 C         138.0586  139.5394  166.2735 C.3     1  UNL1        0.0971
     12 C         141.5840  140.1403  169.0049 C.ar    1  UNL1        0.2250
     13 C         142.5517  141.2567  168.7458 C.ar    1  UNL1        0.0593
     14 C         142.3443  142.1728  167.5763 C.ar    1  UNL1        0.0254
     15 C         141.1692  141.9726  166.6659 C.ar    1  UNL1        0.0990
     16 N         140.9618  142.8887  165.4964 N.ar    1  UNL1       -0.2400
     17 C         139.7867  142.6884  164.5860 C.ar    1  UNL1        0.1281
     18 C         138.8189  141.5719  164.8450 C.ar    1  UNL1        0.1571
     19 F         137.6438  141.3717  163.9346 F       1  UNL1       -0.2028
     20 C         139.0263  140.6558  166.0145 C.ar    1  UNL1        0.0335
     21 C         140.2015  140.8561  166.9249 C.ar    1  UNL1        0.1006
     22 N         140.4089  139.9400  168.0944 N.ar    1  UNL1       -0.2104
     23 C         142.9292  138.2467  170.1688 C.3     1  UNL1        0.2542
     24 O         141.7914  139.2242  170.1743 O.3     1  UNL1       -0.4561
     25 N         142.3382  137.3290  161.3696 N.3     1  UNL1       -0.2926
     26 H         141.8189  137.3824  160.4933 H       1  UNL1        0.1236
     27 C         143.5121  138.2529  161.2342 C.3     1  UNL1        0.1152
     28 C         143.3794  139.6960  161.6212 C.ar    1  UNL1        0.0765
     29 C         142.5501  140.6239  160.7836 C.ar    1  UNL1        0.0193
     30 C         142.4173  142.0669  161.1706 C.ar    1  UNL1        0.0411
     31 C         143.1138  142.5822  162.3951 C.ar    1  UNL1        0.1708
     32 C         143.9430  141.6544  163.2327 C.ar    1  UNL1        0.1682
     33 N         144.0758  140.2113  162.8457 N.ar    1  UNL1       -0.2304
     34 N         144.6394  142.1697  164.4572 N.am    1  UNL1       -0.2639
     35 C         144.5066  143.6128  164.8442 C.2     1  UNL1        0.2718
     36 O         145.2031  144.1281  166.0687 O.2     1  UNL1       -0.2707
     37 C         143.6774  144.5407  164.0066 C.3     1  UNL1        0.2898
     38 O         142.9809  144.0254  162.7821 O.3     1  UNL1       -0.4628
     39 H         145.1837  141.5608  165.0069 H       1  UNL1        0.1565
@<TRIPOS>BOND
     1    23    24    1
     2    24    12    1
     3    12    13   ar
     4    13    14   ar
     5    14    15   ar
     6    15    16   ar
     7    16    17   ar
     8    17    18   ar
     9    18    19    1
    10    18    20   ar
    11    20    11    1
    12    11     9    1
    13     9    10    2
    14     9     1    1
    15     1     2    1
    16     2     3    1
    17     3     4    1
    18     4    25    1
    19    25    27    1
    20    27    28    1
    21    28    29   ar
    22    29    30   ar
    23    30    31   ar
    24    31    32   ar
    25    32    33   ar
    26    32    34    1
    27    34    35   am
    28    35    36    2
    29    35    37    1
    30    37    38    1
    31     4     5    1
    32     5     6    1
    33     4     7    1
    34     7     8    1
    35    20    21   ar
    36    21    22   ar
    37    22    12   ar
    38    21    15   ar
    39     6     1    1
    40     8     1    1
    41    33    28   ar
    42    38    31    1
    43    25    26    1
    44    34    39    1
@<TRIPOS>MOLECULE
*****
 39 44 0 0 0
SMALL
GASTEIGER

@<TRIPOS>ATOM
      1 C         142.9960  141.3446  166.1730 C.3     1  UNL1        0.1438
      2 C         143.2546  142.0397  164.8692 C.3     1  UNL1        0.0358
      3 C         143.7765  141.2640  163.6963 C.3     1  UNL1        0.0198
      4 C         144.0398  139.7930  163.8271 C.3     1  UNL1        0.0701
      5 C         143.7812  139.0979  165.1310 C.3     1  UNL1        0.0198
      6 C         143.2593  139.8737  166.3039 C.3     1  UNL1        0.0358
      7 C         143.7539  140.1760  164.4976 C.3     1  UNL1        0.1567
      8 O         143.2820  140.8774  165.5583 O.3     1  UNL1       -0.3502
      9 C         142.4741  142.1204  167.3460 C.2     1  UNL1        0.1792
     10 O         143.4223  142.6259  168.3926 O.2     1  UNL1       -0.2933
     11 C         141.0040  142.3906  167.4723 C.3     1  UNL1        0.0971
     12 C         139.0213  143.9607  163.7503 C.ar    1  UNL1        0.2250
     13 C         138.0354  143.1074  163.0088 C.ar    1  UNL1        0.0593
     14 C         137.7104  141.7307  163.5080 C.ar    1  UNL1        0.0254
     15 C         138.3713  141.2073  164.7486 C.ar    1  UNL1        0.0990
     16 N         138.0464  139.8306  165.2477 N.ar    1  UNL1       -0.2400
     17 C         138.7073  139.3073  166.4884 C.ar    1  UNL1        0.1281
     18 C         139.6932  140.1606  167.2300 C.ar    1  UNL1        0.1571
     19 F         140.3541  139.6372  168.4706 F       1  UNL1       -0.2028
     20 C         140.0182  141.5373  166.7308 C.ar    1  UNL1        0.0335
     21 C         139.3572  142.0606  165.4901 C.ar    1  UNL1        0.1006
     22 N         139.6822  143.4373  164.9910 N.ar    1  UNL1       -0.2104
     23 C         139.8840  145.5245  161.8635 C.3     1  UNL1        0.2542
     24 O         139.3463  145.3374  163.2512 O.3     1  UNL1       -0.4561
     25 N         144.5616  139.0173  162.6542 N.3     1  UNL1       -0.2926
     26 H         145.4126  138.5492  162.9659 H       1  UNL1        0.1236
     27 C         143.7045  137.9708  162.0058 C.3     1  UNL1        0.1152
     28 C         142.2261  138.1877  161.8751 C.ar    1  UNL1        0.0765
     29 C         141.2854  137.5538  162.8567 C.ar    1  UNL1        0.0193
     30 C         139.8069  137.7707  162.7260 C.ar    1  UNL1        0.0411
     31 C         139.2691  138.6214  161.6137 C.ar    1  UNL1        0.1708
     32 C         140.2097  139.2552  160.6322 C.ar    1  UNL1        0.1682
     33 N         141.6882  139.0384  160.7629 N.ar    1  UNL1       -0.2304
     34 N         139.6719  140.1059  159.5200 N.am    1  UNL1       -0.2639
     35 C         138.1934  140.3227  159.3893 C.2     1  UNL1        0.2718
     36 O         137.6556  141.1734  158.2770 O.2     1  UNL1       -0.2707
     37 C         137.2527  139.6889  160.3708 C.3     1  UNL1        0.2898
     38 O         137.7906  138.8382  161.4831 O.3     1  UNL1       -0.4628
     39 H         140.2893  140.5219  158.8757 H       1  UNL1        0.1565
@<TRIPOS>BOND
     1    23    24    1
     2    24    12    1
     3    12    13   ar
     4    13    14   ar
     5    14    15   ar
     6    15    16   ar
     7    16    17   ar
     8    17    18   ar
     9    18    19    1
    10    18    20   ar
    11    20    11    1
    12    11     9    1
    13     9    10    2
    14     9     1    1
    15     1     2    1
    16     2     3    1
    17     3     4    1
    18     4    25    1
    19    25    27    1
    20    27    28    1
    21    28    29   ar
    22    29    30   ar
    23    30    31   ar
    24    31    32   ar
    25    32    33   ar
    26    32    34    1
    27    34    35   am
    28    35    36    2
    29    35    37    1
    30    37    38    1
    31     4     5    1
    32     5     6    1
    33     4     7    1
    34     7     8    1
    35    20    21   ar
    36    21    22   ar
    37    22    12   ar
    38    21    15   ar
    39     6     1    1
    40     8     1    1
    41    33    28   ar
    42    38    31    1
    43    25    26    1
    44    34    39    1
@<TRIPOS>MOLECULE
*****
 39 44 0 0 0
SMALL
GASTEIGER

@<TRIPOS>ATOM
      1 C         141.1054  144.6248  162.6778 C.3     1  UNL1        0.1438
      2 C         141.4447  143.9013  161.4084 C.3     1  UNL1        0.0358
      3 C         142.8344  143.3806  161.1905 C.3     1  UNL1        0.0198
      4 C         143.8848  143.5833  162.2420 C.3     1  UNL1        0.0701
      5 C         143.5454  144.3068  163.5115 C.3     1  UNL1        0.0198
      6 C         142.1557  144.8275  163.7293 C.3     1  UNL1        0.0358
      7 C         143.1372  143.8866  162.4065 C.3     1  UNL1        0.1567
      8 O         141.8806  144.3575  162.6036 O.3     1  UNL1       -0.3502
      9 C         139.7157  145.1455  162.8958 C.2     1  UNL1        0.1792
     10 O         139.1842  146.2497  162.0306 O.2     1  UNL1       -0.2933
     11 C         138.8574  144.5622  163.9789 C.3     1  UNL1        0.0971
     12 C         140.4536  142.2238  167.4766 C.ar    1  UNL1        0.2250
     13 C         140.2401  140.7407  167.5474 C.ar    1  UNL1        0.0593
     14 C         139.4946  140.0372  166.4523 C.ar    1  UNL1        0.0254
     15 C         138.9625  140.8166  165.2864 C.ar    1  UNL1        0.0990
     16 N         138.2170  140.1130  164.1913 N.ar    1  UNL1       -0.2400
     17 C         137.6850  140.8925  163.0254 C.ar    1  UNL1        0.1281
     18 C         137.8984  142.3756  162.9546 C.ar    1  UNL1        0.1571
     19 F         137.3663  143.1550  161.7887 F       1  UNL1       -0.2028
     20 C         138.6439  143.0792  164.0497 C.ar    1  UNL1        0.0335
     21 C         139.1760  142.2996  165.2156 C.ar    1  UNL1        0.1006
     22 N         139.9215  143.0032  166.3107 N.ar    1  UNL1       -0.2104
     23 C         140.4452  143.6636  169.6391 C.3     1  UNL1        0.2542
     24 O         141.1991  142.9273  168.5716 O.3     1  UNL1       -0.4561
     25 N         145.2745  143.0626  162.0241 N.3     1  UNL1       -0.2926
     26 H         145.9145  143.8101  162.2925 H       1  UNL1        0.1236
     27 C         145.7318  141.8244  162.7367 C.3     1  UNL1        0.1152
     28 C         144.7307  140.7933  163.1663 C.ar    1  UNL1        0.0765
     29 C         144.8641  140.1306  164.5054 C.ar    1  UNL1        0.0193
     30 C         143.8630  139.0995  164.9351 C.ar    1  UNL1        0.0411
     31 C         142.7284  138.7311  164.0257 C.ar    1  UNL1        0.1708
     32 C         142.5949  139.3938  162.6867 C.ar    1  UNL1        0.1682
     33 N         143.5961  140.4249  162.2570 N.ar    1  UNL1       -0.2304
     34 N         141.4603  139.0254  161.7773 N.am    1  UNL1       -0.2639
     35 C         140.4592  137.9943  162.2069 C.2     1  UNL1        0.2718
     36 O         139.3246  137.6259  161.2976 O.2     1  UNL1       -0.2707
     37 C         140.5927  137.3316  163.5460 C.3     1  UNL1        0.2898
     38 O         141.7273  137.7000  164.4554 O.3     1  UNL1       -0.4628
     39 H         141.3727  139.4603  160.8984 H       1  UNL1        0.1565
@<TRIPOS>BOND
     1    23    24    1
     2    24    12    1
     3    12    13   ar
     4    13    14   ar
     5    14    15   ar
     6    15    16   ar
     7    16    17   ar
     8    17    18   ar
     9    18    19    1
    10    18    20   ar
    11    20    11    1
    12    11     9    1
    13     9    10    2
    14     9     1    1
    15     1     2    1
    16     2     3    1
    17     3     4    1
    18     4    25    1
    19    25    27    1
    20    27    28    1
    21    28    29   ar
    22    29    30   ar
    23    30    31   ar
    24    31    32   ar
    25    32    33   ar
    26    32    34    1
    27    34    35   am
    28    35    36    2
    29    35    37    1
    30    37    38    1
    31     4     5    1
    32     5     6    1
    33     4     7    1
    34     7     8    1
    35    20    21   ar
    36    21    22   ar
    37    22    12   ar
    38    21    15   ar
    39     6     1    1
    40     8     1    1
    41    33    28   ar
    42    38    31    1
    43    25    26    1
    44    34    39    1
@<TRIPOS>MOLECULE
*****
 39 44 0 0 0
SMALL
GASTEIGER

@<TRIPOS>ATOM
      1 C         143.6223  142.4220  163.3905 C.3     1  UNL1        0.1438
      2 C         142.9404  143.0737  164.5568 C.3     1  UNL1        0.0358
      3 C         142.0676  144.2742  164.3403 C.3     1  UNL1        0.0198
      4 C         141.8766  144.8230  162.9574 C.3     1  UNL1        0.0701
      5 C         142.5585  144.1713  161.7910 C.3     1  UNL1        0.0198
      6 C         143.4313  142.9707  162.0077 C.3     1  UNL1        0.0358
      7 C         142.3643  144.1633  163.0265 C.3     1  UNL1        0.1567
      8 O         143.1536  143.0778  163.2223 O.3     1  UNL1       -0.3502
      9 C         144.4951  141.2215  163.6071 C.2     1  UNL1        0.1792
     10 O         145.9414  141.2646  163.2116 O.2     1  UNL1       -0.2933
     11 C         143.9217  139.9778  164.2191 C.3     1  UNL1        0.0971
     12 C         139.7668  139.9083  165.9458 C.ar    1  UNL1        0.2250
     13 C         138.6741  139.1606  165.2408 C.ar    1  UNL1        0.0593
     14 C         138.9664  138.4360  163.9604 C.ar    1  UNL1        0.0254
     15 C         140.3513  138.4592  163.3848 C.ar    1  UNL1        0.0990
     16 N         140.6436  137.7347  162.1043 N.ar    1  UNL1       -0.2400
     17 C         142.0286  137.7579  161.5288 C.ar    1  UNL1        0.1281
     18 C         143.1213  138.5056  162.2337 C.ar    1  UNL1        0.1571
     19 F         144.5063  138.5288  161.6581 F       1  UNL1       -0.2028
     20 C         142.8290  139.2301  163.5142 C.ar    1  UNL1        0.0335
     21 C         141.4440  139.2069  164.0897 C.ar    1  UNL1        0.1006
     22 N         141.1517  139.9315  165.3702 N.ar    1  UNL1       -0.2104
     23 C         139.9757  140.0846  168.5294 C.3     1  UNL1        0.2542
     24 O         139.4745  140.6328  167.2263 O.3     1  UNL1       -0.4561
     25 N         141.0037  146.0235  162.7408 N.3     1  UNL1       -0.2926
     26 H         141.4079  146.5450  161.9629 H       1  UNL1        0.1236
     27 C         139.5467  145.8456  162.4322 C.3     1  UNL1        0.1152
     28 C         138.9831  144.4686  162.2416 C.ar    1  UNL1        0.0765
     29 C         138.3107  143.7685  163.3852 C.ar    1  UNL1        0.0193
     30 C         137.7471  142.3915  163.1946 C.ar    1  UNL1        0.0411
     31 C         137.8559  141.7146  161.8605 C.ar    1  UNL1        0.1708
     32 C         138.5283  142.4147  160.7169 C.ar    1  UNL1        0.1682
     33 N         139.0919  143.7917  160.9074 N.ar    1  UNL1       -0.2304
     34 N         138.6371  141.7378  159.3827 N.am    1  UNL1       -0.2639
     35 C         138.0735  140.3609  159.1922 C.2     1  UNL1        0.2718
     36 O         138.1823  139.6840  157.8580 O.2     1  UNL1       -0.2707
     37 C         137.4011  139.6607  160.3358 C.3     1  UNL1        0.2898
     38 O         137.2923  140.3376  161.6699 O.3     1  UNL1       -0.4628
     39 H         139.0784  142.1973  158.6322 H       1  UNL1        0.1565
@<TRIPOS>BOND
     1    23    24    1
     2    24    12    1
     3    12    13   ar
     4    13    14   ar
     5    14    15   ar
     6    15    16   ar
     7    16    17   ar
     8    17    18   ar
     9    18    19    1
    10    18    20   ar
    11    20    11    1
    12    11     9    1
    13     9    10    2
    14     9     1    1
    15     1     2    1
    16     2     3    1
    17     3     4    1
    18     4    25    1
    19    25    27    1
    20    27    28    1
    21    28    29   ar
    22    29    30   ar
    23    30    31   ar
    24    31    32   ar
    25    32    33   ar
    26    32    34    1
    27    34    35   am
    28    35    36    2
    29    35    37    1
    30    37    38    1
    31     4     5    1
    32     5     6    1
    33     4     7    1
    34     7     8    1
    35    20    21   ar
    36    21    22   ar
    37    22    12   ar
    38    21    15   ar
    39     6     1    1
    40     8     1    1
    41    33    28   ar
    42    38    31    1
    43    25    26    1
    44    34    39    1
@<TRIPOS>MOLECULE
*****
 39 44 0 0 0
SMALL
GASTEIGER

@<TRIPOS>ATOM
      1 C         138.4838  140.1504  165.0703 C.3     1  UNL1        0.1438
      2 C         137.5774  140.7249  164.0222 C.3     1  UNL1        0.0358
      3 C         137.5754  142.2018  163.7601 C.3     1  UNL1        0.0198
      4 C         138.4797  143.1043  164.5461 C.3     1  UNL1        0.0701
      5 C         139.3861  142.5298  165.5942 C.3     1  UNL1        0.0198
      6 C         139.3881  141.0529  165.8563 C.3     1  UNL1        0.0358
      7 C         138.5160  142.3015  164.7253 C.3     1  UNL1        0.1567
      8 O         138.5179  140.9660  164.9623 O.3     1  UNL1       -0.3502
      9 C         138.4859  138.6735  165.3324 C.2     1  UNL1        0.1792
     10 O         137.8896  138.1358  166.5994 O.2     1  UNL1       -0.2933
     11 C         139.0843  137.7343  164.3275 C.3     1  UNL1        0.0971
     12 C         143.1730  138.7187  165.9285 C.ar    1  UNL1        0.2250
     13 C         144.2467  139.2001  164.9984 C.ar    1  UNL1        0.0593
     14 C         143.9576  139.3535  163.5345 C.ar    1  UNL1        0.0254
     15 C         142.5947  139.0254  163.0008 C.ar    1  UNL1        0.0990
     16 N         142.3055  139.1787  161.5370 N.ar    1  UNL1       -0.2400
     17 C         140.9427  138.8506  161.0033 C.ar    1  UNL1        0.1281
     18 C         139.8689  138.3691  161.9334 C.ar    1  UNL1        0.1571
     19 F         138.5060  138.0409  161.3998 F       1  UNL1       -0.2028
     20 C         140.1580  138.2157  163.3973 C.ar    1  UNL1        0.0335
     21 C         141.5210  138.5439  163.9310 C.ar    1  UNL1        0.1006
     22 N         141.8101  138.3906  165.3948 N.ar    1  UNL1       -0.2104
     23 C         142.6679  139.3434  168.3993 C.3     1  UNL1        0.2542
     24 O         143.4621  138.5654  167.3924 O.3     1  UNL1       -0.4561
     25 N         138.4776  144.5812  164.2840 N.3     1  UNL1       -0.2926
     26 H         138.8978  145.0257  165.1002 H       1  UNL1        0.1236
     27 C         139.1842  145.1303  163.0801 C.3     1  UNL1        0.1152
     28 C         140.5846  144.6928  162.7680 C.ar    1  UNL1        0.0765
     29 C         141.7394  145.2767  163.5267 C.ar    1  UNL1        0.0193
     30 C         143.1398  144.8393  163.2147 C.ar    1  UNL1        0.0411
     31 C         143.3855  143.8179  162.1439 C.ar    1  UNL1        0.1708
     32 C         142.2308  143.2340  161.3852 C.ar    1  UNL1        0.1682
     33 N         140.8303  143.6715  161.6973 N.ar    1  UNL1       -0.2304
     34 N         142.4765  142.2127  160.3145 N.am    1  UNL1       -0.2639
     35 C         143.8769  141.7752  160.0024 C.2     1  UNL1        0.2718
     36 O         144.1226  140.7539  158.9317 O.2     1  UNL1       -0.2707
     37 C         145.0317  142.3591  160.7611 C.3     1  UNL1        0.2898
     38 O         144.7860  143.3805  161.8319 O.3     1  UNL1       -0.4628
     39 H         141.7186  141.8294  159.8166 H       1  UNL1        0.1565
@<TRIPOS>BOND
     1    23    24    1
     2    24    12    1
     3    12    13   ar
     4    13    14   ar
     5    14    15   ar
     6    15    16   ar
     7    16    17   ar
     8    17    18   ar
     9    18    19    1
    10    18    20   ar
    11    20    11    1
    12    11     9    1
    13     9    10    2
    14     9     1    1
    15     1     2    1
    16     2     3    1
    17     3     4    1
    18     4    25    1
    19    25    27    1
    20    27    28    1
    21    28    29   ar
    22    29    30   ar
    23    30    31   ar
    24    31    32   ar
    25    32    33   ar
    26    32    34    1
    27    34    35   am
    28    35    36    2
    29    35    37    1
    30    37    38    1
    31     4     5    1
    32     5     6    1
    33     4     7    1
    34     7     8    1
    35    20    21   ar
    36    21    22   ar
    37    22    12   ar
    38    21    15   ar
    39     6     1    1
    40     8     1    1
    41    33    28   ar
    42    38    31    1
    43    25    26    1
    44    34    39    1
@<TRIPOS>MOLECULE
*****
 39 44 0 0 0
SMALL
GASTEIGER

@<TRIPOS>ATOM
      1 C         138.1569  142.9600  162.8637 C.3     1  UNL1        0.1438
      2 C         137.7893  141.9365  163.8968 C.3     1  UNL1        0.0358
      3 C         137.6024  140.5025  163.4985 C.3     1  UNL1        0.0198
      4 C         137.7831  140.0919  162.0671 C.3     1  UNL1        0.0701
      5 C         138.1508  141.1154  161.0340 C.3     1  UNL1        0.0198
      6 C         138.3377  142.5495  161.4323 C.3     1  UNL1        0.0358
      7 C         137.8962  140.8895  162.2375 C.3     1  UNL1        0.1567
      8 O         138.0652  142.1862  162.5975 O.3     1  UNL1       -0.3502
      9 C         138.3438  144.3940  163.2619 C.2     1  UNL1        0.1792
     10 O         137.6892  145.4846  162.4669 O.2     1  UNL1       -0.2933
     11 C         139.1853  144.7375  164.4552 C.3     1  UNL1        0.0971
     12 C         140.5818  141.5257  167.2808 C.ar    1  UNL1        0.2250
     13 C         142.0295  141.1346  167.3152 C.ar    1  UNL1        0.0593
     14 C         143.0117  141.8142  166.4077 C.ar    1  UNL1        0.0254
     15 C         142.5463  142.8848  165.4659 C.ar    1  UNL1        0.0990
     16 N         143.5285  143.5643  164.5584 N.ar    1  UNL1       -0.2400
     17 C         143.0630  144.6349  163.6166 C.ar    1  UNL1        0.1281
     18 C         141.6152  145.0260  163.5821 C.ar    1  UNL1        0.1571
     19 F         141.1498  146.0966  162.6403 F       1  UNL1       -0.2028
     20 C         140.6330  144.3464  164.4896 C.ar    1  UNL1        0.0335
     21 C         141.0986  143.2758  165.4315 C.ar    1  UNL1        0.1006
     22 N         140.1164  142.5963  166.3389 N.ar    1  UNL1       -0.2104
     23 C         140.0624  140.2573  169.4879 C.3     1  UNL1        0.2542
     24 O         139.5996  140.8461  168.1882 O.3     1  UNL1       -0.4561
     25 N         137.5962  138.6579  161.6689 N.3     1  UNL1       -0.2926
     26 H         137.1082  138.6622  160.7733 H       1  UNL1        0.1236
     27 C         138.7890  137.7627  161.5077 C.3     1  UNL1        0.1152
     28 C         140.0279  138.0112  162.3159 C.ar    1  UNL1        0.0765
     29 C         140.2356  137.2862  163.6126 C.ar    1  UNL1        0.0193
     30 C         141.4745  137.5347  164.4207 C.ar    1  UNL1        0.0411
     31 C         142.5059  138.5082  163.9324 C.ar    1  UNL1        0.1708
     32 C         142.2983  139.2333  162.6358 C.ar    1  UNL1        0.1682
     33 N         141.0593  138.9848  161.8275 N.ar    1  UNL1       -0.2304
     34 N         143.3296  140.2069  162.1474 N.am    1  UNL1       -0.2639
     35 C         144.5685  140.4554  162.9556 C.2     1  UNL1        0.2718
     36 O         145.5999  141.4289  162.4672 O.2     1  UNL1       -0.2707
     37 C         144.7762  139.7303  164.2522 C.3     1  UNL1        0.2898
     38 O         143.7449  138.7568  164.7406 O.3     1  UNL1       -0.4628
     39 H         143.1933  140.6827  161.2964 H       1  UNL1        0.1565
@<TRIPOS>BOND
     1    23    24    1
     2    24    12    1
     3    12    13   ar
     4    13    14   ar
     5    14    15   ar
     6    15    16   ar
     7    16    17   ar
     8    17    18   ar
     9    18    19    1
    10    18    20   ar
    11    20    11    1
    12    11     9    1
    13     9    10    2
    14     9     1    1
    15     1     2    1
    16     2     3    1
    17     3     4    1
    18     4    25    1
    19    25    27    1
    20    27    28    1
    21    28    29   ar
    22    29    30   ar
    23    30    31   ar
    24    31    32   ar
    25    32    33   ar
    26    32    34    1
    27    34    35   am
    28    35    36    2
    29    35    37    1
    30    37    38    1
    31     4     5    1
    32     5     6    1
    33     4     7    1
    34     7     8    1
    35    20    21   ar
    36    21    22   ar
    37    22    12   ar
    38    21    15   ar
    39     6     1    1
    40     8     1    1
    41    33    28   ar
    42    38    31    1
    43    25    26    1
    44    34    39    1
@<TRIPOS>MOLECULE
*****
 39 44 0 0 0
SMALL
GASTEIGER

@<TRIPOS>ATOM
      1 C         140.8395  144.7514  162.0840 C.3     1  UNL1        0.1438
      2 C         141.7984  145.2711  163.1137 C.3     1  UNL1        0.0358
      3 C         143.2035  144.7483  163.1616 C.3     1  UNL1        0.0198
      4 C         143.6498  143.7058  162.1796 C.3     1  UNL1        0.0701
      5 C         142.6908  143.1861  161.1499 C.3     1  UNL1        0.0198
      6 C         141.2857  143.7090  161.1021 C.3     1  UNL1        0.0358
      7 C         142.8700  143.9619  162.1144 C.3     1  UNL1        0.1567
      8 O         141.5994  144.4346  162.0711 O.3     1  UNL1       -0.3502
      9 C         139.4344  145.2742  162.0361 C.2     1  UNL1        0.1792
     10 O         139.1324  146.5473  161.3027 O.2     1  UNL1       -0.2933
     11 C         138.3312  144.5238  162.7217 C.3     1  UNL1        0.0971
     12 C         137.8312  140.2364  161.4496 C.ar    1  UNL1        0.2250
     13 C         138.1594  139.1275  162.4049 C.ar    1  UNL1        0.0593
     14 C         138.6542  139.4478  163.7843 C.ar    1  UNL1        0.0254
     15 C         138.8208  140.8769  164.2083 C.ar    1  UNL1        0.0990
     16 N         139.3156  141.1971  165.5877 N.ar    1  UNL1       -0.2400
     17 C         139.4823  142.6262  166.0117 C.ar    1  UNL1        0.1281
     18 C         139.1541  143.7351  165.0564 C.ar    1  UNL1        0.1571
     19 F         139.3208  145.1642  165.4805 F       1  UNL1       -0.2028
     20 C         138.6593  143.4149  163.6770 C.ar    1  UNL1        0.0335
     21 C         138.4927  141.9857  163.2530 C.ar    1  UNL1        0.1006
     22 N         137.9979  141.6655  161.8736 N.ar    1  UNL1       -0.2104
     23 C         138.1375  140.3295  158.8713 C.3     1  UNL1        0.2542
     24 O         137.3364  139.9162  160.0702 O.3     1  UNL1       -0.4561
     25 N         145.0549  143.1830  162.2275 N.3     1  UNL1       -0.2926
     26 H         145.5909  143.8317  162.8039 H       1  UNL1        0.1236
     27 C         145.3253  141.8066  162.7588 C.3     1  UNL1        0.1152
     28 C         144.4533  141.2339  163.8365 C.ar    1  UNL1        0.0765
     29 C         143.8460  139.8730  163.6658 C.ar    1  UNL1        0.0193
     30 C         142.9740  139.3003  164.7436 C.ar    1  UNL1        0.0411
     31 C         142.7092  140.0885  165.9920 C.ar    1  UNL1        0.1708
     32 C         143.3164  141.4494  166.1627 C.ar    1  UNL1        0.1682
     33 N         144.1885  142.0222  165.0850 N.ar    1  UNL1       -0.2304
     34 N         143.0516  142.2376  167.4111 N.am    1  UNL1       -0.2639
     35 C         142.1796  141.6650  168.4889 C.2     1  UNL1        0.2718
     36 O         141.9147  142.4532  169.7373 O.2     1  UNL1       -0.2707
     37 C         141.5723  140.3040  168.3182 C.3     1  UNL1        0.2898
     38 O         141.8371  139.5158  167.0698 O.3     1  UNL1       -0.4628
     39 H         143.4502  143.1309  167.5232 H       1  UNL1        0.1565
@<TRIPOS>BOND
     1    23    24    1
     2    24    12    1
     3    12    13   ar
     4    13    14   ar
     5    14    15   ar
     6    15    16   ar
     7    16    17   ar
     8    17    18   ar
     9    18    19    1
    10    18    20   ar
    11    20    11    1
    12    11     9    1
    13     9    10    2
    14     9     1    1
    15     1     2    1
    16     2     3    1
    17     3     4    1
    18     4    25    1
    19    25    27    1
    20    27    28    1
    21    28    29   ar
    22    29    30   ar
    23    30    31   ar
    24    31    32   ar
    25    32    33   ar
    26    32    34    1
    27    34    35   am
    28    35    36    2
    29    35    37    1
    30    37    38    1
    31     4     5    1
    32     5     6    1
    33     4     7    1
    34     7     8    1
    35    20    21   ar
    36    21    22   ar
    37    22    12   ar
    38    21    15   ar
    39     6     1    1
    40     8     1    1
    41    33    28   ar
    42    38    31    1
    43    25    26    1
    44    34    39    1
@<TRIPOS>MOLECULE
*****
 39 44 0 0 0
SMALL
GASTEIGER

@<TRIPOS>ATOM
      1 C         143.3903  140.3794  160.6762 C.3     1  UNL1        0.1438
      2 C         144.1474  139.1905  161.1892 C.3     1  UNL1        0.0358
      3 C         143.4164  138.0749  161.8755 C.3     1  UNL1        0.0198
      4 C         141.9282  138.1482  162.0487 C.3     1  UNL1        0.0701
      5 C         141.1711  139.3371  161.5357 C.3     1  UNL1        0.0198
      6 C         141.9022  140.4528  160.8494 C.3     1  UNL1        0.0358
      7 C         142.2851  138.7839  161.6661 C.3     1  UNL1        0.1567
      8 O         142.9461  139.7927  161.0456 O.3     1  UNL1       -0.3502
      9 C         144.1213  141.4951  159.9900 C.2     1  UNL1        0.1792
     10 O         144.1880  141.5384  158.4921 O.2     1  UNL1       -0.2933
     11 C         144.7857  142.5674  160.8016 C.3     1  UNL1        0.0971
     12 C         141.0950  145.1176  161.1555 C.ar    1  UNL1        0.2250
     13 C         140.5574  145.4750  162.5094 C.ar    1  UNL1        0.0593
     14 C         141.2500  144.9824  163.7454 C.ar    1  UNL1        0.0254
     15 C         142.4802  144.1324  163.6275 C.ar    1  UNL1        0.0990
     16 N         143.1728  143.6398  164.8634 N.ar    1  UNL1       -0.2400
     17 C         144.4030  142.7897  164.7455 C.ar    1  UNL1        0.1281
     18 C         144.9407  142.4323  163.3915 C.ar    1  UNL1        0.1571
     19 F         146.1709  141.5822  163.2736 F       1  UNL1       -0.2028
     20 C         144.2481  142.9249  162.1555 C.ar    1  UNL1        0.0335
     21 C         143.0178  143.7749  162.2735 C.ar    1  UNL1        0.1006
     22 N         142.3252  144.2675  161.0376 N.ar    1  UNL1       -0.2104
     23 C         140.1191  144.6637  158.7908 C.3     1  UNL1        0.2542
     24 O         140.4024  145.6102  159.9195 O.3     1  UNL1       -0.4561
     25 N         141.1971  137.0326  162.7349 N.3     1  UNL1       -0.2926
     26 H         141.5938  136.1609  162.3840 H       1  UNL1        0.1236
     27 C         141.2049  136.9400  164.2321 C.3     1  UNL1        0.1152
     28 C         140.9204  138.1578  165.0603 C.ar    1  UNL1        0.0765
     29 C         139.5158  138.6694  165.1840 C.ar    1  UNL1        0.0193
     30 C         139.2313  139.8872  166.0122 C.ar    1  UNL1        0.0411
     31 C         140.3515  140.5935  166.7167 C.ar    1  UNL1        0.1708
     32 C         141.7561  140.0820  166.5930 C.ar    1  UNL1        0.1682
     33 N         142.0406  138.8641  165.7648 N.ar    1  UNL1       -0.2304
     34 N         142.8763  140.7883  167.2975 N.am    1  UNL1       -0.2639
     35 C         142.5919  142.0061  168.1257 C.2     1  UNL1        0.2718
     36 O         143.7121  142.7124  168.8302 O.2     1  UNL1       -0.2707
     37 C         141.1872  142.5177  168.2495 C.3     1  UNL1        0.2898
     38 O         140.0670  141.8114  167.5450 O.3     1  UNL1       -0.4628
     39 H         143.7983  140.4525  167.2163 H       1  UNL1        0.1565
@<TRIPOS>BOND
     1    23    24    1
     2    24    12    1
     3    12    13   ar
     4    13    14   ar
     5    14    15   ar
     6    15    16   ar
     7    16    17   ar
     8    17    18   ar
     9    18    19    1
    10    18    20   ar
    11    20    11    1
    12    11     9    1
    13     9    10    2
    14     9     1    1
    15     1     2    1
    16     2     3    1
    17     3     4    1
    18     4    25    1
    19    25    27    1
    20    27    28    1
    21    28    29   ar
    22    29    30   ar
    23    30    31   ar
    24    31    32   ar
    25    32    33   ar
    26    32    34    1
    27    34    35   am
    28    35    36    2
    29    35    37    1
    30    37    38    1
    31     4     5    1
    32     5     6    1
    33     4     7    1
    34     7     8    1
    35    20    21   ar
    36    21    22   ar
    37    22    12   ar
    38    21    15   ar
    39     6     1    1
    40     8     1    1
    41    33    28   ar
    42    38    31    1
    43    25    26    1
    44    34    39    1
