@<TRIPOS>MOLECULE
*****
 38 42 0 0 0
SMALL
GASTEIGER

@<TRIPOS>ATOM
      1 C         141.4378  140.5316  165.7534 C.3     1  UNL1        0.0231
      2 C         141.1398  140.2001  167.1856 C.3     1  UNL1        0.0724
      3 C         141.2473  140.2707  167.2757 C.3     1  UNL1        0.0904
      4 C         140.1156  141.0474  167.8807 C.3     1  UNL1        0.0386
      5 C         140.3890  142.0561  168.9566 C.3     1  UNL1        0.0594
      6 C         141.1016  142.9184  169.9559 C.3     1  UNL1        0.0174
      7 C         142.5663  142.6040  169.8785 C.3     1  UNL1        0.0174
      8 C         142.7589  141.5475  168.8313 C.3     1  UNL1        0.0594
      9 C         142.6524  140.5029  167.7466 C.3     1  UNL1        0.0386
     10 N         141.4132  141.2088  168.2615 N.3     1  UNL1       -0.2751
     11 C         138.3125  139.4835  166.0853 C.3     1  UNL1        0.0738
     12 C         139.6249  138.9001  165.6526 C.ar    1  UNL1        0.1433
     13 N         139.8188  137.8524  164.5968 N.ar    1  UNL1       -0.1337
     14 N         141.2875  137.5667  164.4914 N.ar    1  UNL1       -0.1337
     15 C         142.0014  138.4378  165.4820 C.ar    1  UNL1        0.1425
     16 N         140.9739  139.2619  166.1997 N.ar    1  UNL1       -0.3039
     17 C         143.4828  138.4778  165.7143 C.3     1  UNL1        0.0588
     18 C         144.3628  139.2846  164.8062 C.3     1  UNL1        0.0080
     19 C         144.0842  137.7111  166.8548 C.3     1  UNL1        0.0080
     20 C         141.4883  141.9636  165.3099 C.3     1  UNL1        0.0411
     21 C         140.2340  142.6558  164.8655 C.ar    1  UNL1       -0.0211
     22 C         139.4234  142.0883  163.7381 C.ar    1  UNL1       -0.0042
     23 C         138.1691  142.7804  163.2936 C.ar    1  UNL1       -0.0003
     24 C         137.7253  144.0401  163.9766 C.ar    1  UNL1       -0.0000
     25 C         138.5358  144.6076  165.1040 C.ar    1  UNL1       -0.0003
     26 C         139.7901  143.9154  165.5484 C.ar    1  UNL1       -0.0042
     27 C         142.7932  142.7035  165.3108 C.3     1  UNL1        0.0958
     28 N         143.4715  143.0293  164.0133 N.3     1  UNL1       -0.1791
     29 H         143.8732  142.1590  163.6644 H       1  UNL1        0.1488
     30 S         142.6843  143.6259  162.8845 S.O2    1  UNL1        0.0602
     31 O         142.7310  142.3141  162.1586 O.2     1  UNL1       -0.1530
     32 O         142.6376  144.9377  163.6104 O.2     1  UNL1       -0.1530
     33 C         141.8970  144.2226  161.7557 C.ar    1  UNL1        0.1219
     34 C         140.8043  145.2094  162.0427 C.ar    1  UNL1        0.0199
     35 C         140.0170  145.8061  160.9139 C.ar    1  UNL1        0.0014
     36 C         140.3223  145.4159  159.4981 C.ar    1  UNL1        0.0001
     37 C         141.4150  144.4290  159.2111 C.ar    1  UNL1        0.0014
     38 C         142.2023  143.8324  160.3399 C.ar    1  UNL1        0.0199
@<TRIPOS>BOND
     1    11    12    1
     2    12    13   ar
     3    13    14   ar
     4    14    15   ar
     5    15    17    1
     6    17    18    1
     7    17    19    1
     8    15    16   ar
     9     3    16    1
    10     3     4    1
    11     5     4    1
    12     5     6    1
    13     6     7    1
    14     8     7    1
    15     8     9    1
    16     8    10    1
    17    10     2    1
    18     2     1    1
    19     1    20    1
    20    20    27    1
    21    27    28    1
    22    28    30    1
    23    30    31    2
    24    30    32    2
    25    30    33    1
    26    33    34   ar
    27    34    35   ar
    28    35    36   ar
    29    36    37   ar
    30    37    38   ar
    31    20    21    1
    32    21    22   ar
    33    22    23   ar
    34    23    24   ar
    35    24    25   ar
    36    25    26   ar
    37    16    12   ar
    38     9     3    1
    39    38    33   ar
    40    26    21   ar
    41    10     5    1
    42    28    29    1
@<TRIPOS>MOLECULE
*****
 38 42 0 0 0
SMALL
GASTEIGER

@<TRIPOS>ATOM
      1 C         140.8345  141.6516  163.5709 C.3     1  UNL1        0.0231
      2 C         140.3172  141.5156  162.1695 C.3     1  UNL1        0.0724
      3 C         140.1784  141.4425  162.1755 C.3     1  UNL1        0.0904
      4 C         140.8105  140.3447  161.3722 C.3     1  UNL1        0.0386
      5 C         140.0051  139.1405  160.9836 C.3     1  UNL1        0.0594
      6 C         138.8698  138.1720  160.8313 C.3     1  UNL1        0.0174
      7 C         137.6748  138.7444  161.5344 C.3     1  UNL1        0.0174
      8 C         138.0716  140.0666  162.1213 C.3     1  UNL1        0.0594
      9 C         138.7408  141.3360  162.5901 C.3     1  UNL1        0.0386
     10 N         139.5118  140.3114  161.7809 N.3     1  UNL1       -0.2751
     11 C         143.3429  141.9210  161.5376 C.3     1  UNL1        0.0738
     12 C         142.4384  142.8667  162.2709 C.ar    1  UNL1        0.1433
     13 N         142.8297  144.1984  162.8398 N.ar    1  UNL1       -0.1337
     14 N         141.6170  144.8014  163.4845 N.ar    1  UNL1       -0.1337
     15 C         140.4763  143.8425  163.3142 C.ar    1  UNL1        0.1425
     16 N         140.9839  142.6468  162.5641 N.ar    1  UNL1       -0.3039
     17 C         139.0740  144.0439  163.8073 C.3     1  UNL1        0.0588
     18 C         138.7540  143.8468  165.2594 C.3     1  UNL1        0.0080
     19 C         137.9916  144.4424  162.8482 C.3     1  UNL1        0.0080
     20 C         141.2139  140.4288  164.3523 C.3     1  UNL1        0.0411
     21 C         140.1506  139.5951  165.0038 C.ar    1  UNL1       -0.0211
     22 C         139.9751  138.1593  164.6067 C.ar    1  UNL1       -0.0042
     23 C         138.9118  137.3255  165.2581 C.ar    1  UNL1       -0.0003
     24 C         138.0239  137.9277  166.3066 C.ar    1  UNL1       -0.0000
     25 C         138.1994  139.3635  166.7036 C.ar    1  UNL1       -0.0003
     26 C         139.2627  140.1972  166.0522 C.ar    1  UNL1       -0.0042
     27 C         142.6567  140.0394  164.4823 C.3     1  UNL1        0.0958
     28 N         143.5615  140.8086  165.3985 N.3     1  UNL1       -0.1791
     29 H         143.9923  141.5439  164.8379 H       1  UNL1        0.1488
     30 S         143.0025  141.4695  166.6235 S.O2    1  UNL1        0.0602
     31 O         143.1536  142.8106  165.9690 O.2     1  UNL1       -0.1530
     32 O         142.8513  140.1283  167.2781 O.2     1  UNL1       -0.1530
     33 C         142.4434  142.1303  167.8486 C.ar    1  UNL1        0.1219
     34 C         141.0233  142.6133  167.8583 C.ar    1  UNL1        0.0199
     35 C         140.4642  143.2742  169.0833 C.ar    1  UNL1        0.0014
     36 C         141.3252  143.4520  170.2987 C.ar    1  UNL1        0.0001
     37 C         142.7454  142.9690  170.2890 C.ar    1  UNL1        0.0014
     38 C         143.3044  142.3081  169.0639 C.ar    1  UNL1        0.0199
@<TRIPOS>BOND
     1    11    12    1
     2    12    13   ar
     3    13    14   ar
     4    14    15   ar
     5    15    17    1
     6    17    18    1
     7    17    19    1
     8    15    16   ar
     9     3    16    1
    10     3     4    1
    11     5     4    1
    12     5     6    1
    13     6     7    1
    14     8     7    1
    15     8     9    1
    16     8    10    1
    17    10     2    1
    18     2     1    1
    19     1    20    1
    20    20    27    1
    21    27    28    1
    22    28    30    1
    23    30    31    2
    24    30    32    2
    25    30    33    1
    26    33    34   ar
    27    34    35   ar
    28    35    36   ar
    29    36    37   ar
    30    37    38   ar
    31    20    21    1
    32    21    22   ar
    33    22    23   ar
    34    23    24   ar
    35    24    25   ar
    36    25    26   ar
    37    16    12   ar
    38     9     3    1
    39    38    33   ar
    40    26    21   ar
    41    10     5    1
    42    28    29    1
@<TRIPOS>MOLECULE
*****
 38 42 0 0 0
SMALL
GASTEIGER

@<TRIPOS>ATOM
      1 C         140.5814  140.8756  165.4541 C.3     1  UNL1        0.0231
      2 C         140.1860  141.3512  166.8206 C.3     1  UNL1        0.0724
      3 C         140.2692  141.2572  166.9150 C.3     1  UNL1        0.0904
      4 C         140.7865  142.5036  167.5700 C.3     1  UNL1        0.0386
      5 C         141.7578  142.4046  168.7087 C.3     1  UNL1        0.0594
      6 C         142.6703  141.8482  169.7612 C.3     1  UNL1        0.0174
      7 C         142.6338  140.3519  169.6623 C.3     1  UNL1        0.0174
      8 C         141.6987  139.9836  168.5487 C.3     1  UNL1        0.0594
      9 C         140.7233  139.9119  167.3987 C.3     1  UNL1        0.0386
     10 N         141.1573  141.2522  167.9594 N.3     1  UNL1       -0.2751
     11 C         139.6099  143.9441  165.1842 C.3     1  UNL1        0.0738
     12 C         138.9948  142.5911  164.9806 C.ar    1  UNL1        0.1433
     13 N         137.9686  142.2357  163.9459 N.ar    1  UNL1       -0.1337
     14 N         137.6376  140.7811  164.1019 N.ar    1  UNL1       -0.1337
     15 C         138.4590  140.2375  165.2331 C.ar    1  UNL1        0.1425
     16 N         139.2978  141.3561  165.7762 N.ar    1  UNL1       -0.3039
     17 C         138.4443  138.8234  165.7334 C.3     1  UNL1        0.0588
     18 C         137.6802  138.4756  166.9764 C.3     1  UNL1        0.0080
     19 C         139.1938  137.7571  164.9907 C.3     1  UNL1        0.0080
     20 C         142.0242  140.8875  165.0442 C.3     1  UNL1        0.0411
     21 C         142.6699  142.1698  164.6095 C.ar    1  UNL1       -0.0211
     22 C         143.6941  142.8283  165.4855 C.ar    1  UNL1       -0.0042
     23 C         144.3399  144.1106  165.0508 C.ar    1  UNL1       -0.0003
     24 C         143.9613  144.7343  163.7401 C.ar    1  UNL1       -0.0000
     25 C         142.9371  144.0758  162.8642 C.ar    1  UNL1       -0.0003
     26 C         142.2914  142.7935  163.2989 C.ar    1  UNL1       -0.0042
     27 C         142.8216  139.6172  165.0690 C.3     1  UNL1        0.0958
     28 N         143.9775  139.4387  164.1299 N.3     1  UNL1       -0.1791
     29 H         144.4698  138.5958  164.4257 H       1  UNL1        0.1488
     30 S         143.7325  139.3026  162.6564 S.O2    1  UNL1        0.0602
     31 O         142.7614  138.1903  162.9206 O.2     1  UNL1       -0.1530
     32 O         144.7036  140.4148  162.3921 O.2     1  UNL1       -0.1530
     33 C         143.4875  139.1664  161.1828 C.ar    1  UNL1        0.1219
     34 C         142.9980  137.8645  160.6210 C.ar    1  UNL1        0.0199
     35 C         142.7530  137.7283  159.1474 C.ar    1  UNL1        0.0014
     36 C         142.9974  138.8940  158.2356 C.ar    1  UNL1        0.0001
     37 C         143.4869  140.1959  158.7974 C.ar    1  UNL1        0.0014
     38 C         143.7319  140.3321  160.2710 C.ar    1  UNL1        0.0199
@<TRIPOS>BOND
     1    11    12    1
     2    12    13   ar
     3    13    14   ar
     4    14    15   ar
     5    15    17    1
     6    17    18    1
     7    17    19    1
     8    15    16   ar
     9     3    16    1
    10     3     4    1
    11     5     4    1
    12     5     6    1
    13     6     7    1
    14     8     7    1
    15     8     9    1
    16     8    10    1
    17    10     2    1
    18     2     1    1
    19     1    20    1
    20    20    27    1
    21    27    28    1
    22    28    30    1
    23    30    31    2
    24    30    32    2
    25    30    33    1
    26    33    34   ar
    27    34    35   ar
    28    35    36   ar
    29    36    37   ar
    30    37    38   ar
    31    20    21    1
    32    21    22   ar
    33    22    23   ar
    34    23    24   ar
    35    24    25   ar
    36    25    26   ar
    37    16    12   ar
    38     9     3    1
    39    38    33   ar
    40    26    21   ar
    41    10     5    1
    42    28    29    1
@<TRIPOS>MOLECULE
*****
 38 42 0 0 0
SMALL
GASTEIGER

@<TRIPOS>ATOM
      1 C         142.0053  140.3900  165.7953 C.3     1  UNL1        0.0231
      2 C         141.3388  140.2461  167.1314 C.3     1  UNL1        0.0724
      3 C         141.4309  140.3123  167.2401 C.3     1  UNL1        0.0904
      4 C         140.3119  141.2802  167.4865 C.3     1  UNL1        0.0386
      5 C         140.4648  142.3559  168.5207 C.3     1  UNL1        0.0594
      6 C         141.0368  143.2255  169.6008 C.3     1  UNL1        0.0174
      7 C         142.4172  142.7289  169.9132 C.3     1  UNL1        0.0174
      8 C         142.6984  141.5523  169.0262 C.3     1  UNL1        0.0594
      9 C         142.7029  140.4200  168.0278 C.3     1  UNL1        0.0386
     10 N         141.4917  141.3218  168.1656 N.3     1  UNL1       -0.2751
     11 C         143.8316  138.4680  166.0214 C.3     1  UNL1        0.0738
     12 C         142.3815  138.3888  165.6457 C.ar    1  UNL1        0.1433
     13 N         141.7803  137.4480  164.6440 N.ar    1  UNL1       -0.1337
     14 N         140.3054  137.7143  164.5851 N.ar    1  UNL1       -0.1337
     15 C         139.9949  138.8196  165.5503 C.ar    1  UNL1        0.1425
     16 N         141.2781  139.2365  166.2059 N.ar    1  UNL1       -0.3039
     17 C         138.6394  139.4053  165.8138 C.3     1  UNL1        0.0588
     18 C         138.1218  140.5169  164.9499 C.3     1  UNL1        0.0080
     19 C         137.8012  138.8793  166.9413 C.3     1  UNL1        0.0080
     20 C         142.2546  141.7546  165.2247 C.3     1  UNL1        0.0411
     21 C         141.1835  142.4431  164.4318 C.ar    1  UNL1       -0.0211
     22 C         140.8093  141.9298  163.0728 C.ar    1  UNL1       -0.0042
     23 C         139.7382  142.6183  162.2798 C.ar    1  UNL1       -0.0003
     24 C         139.0414  143.8200  162.8458 C.ar    1  UNL1       -0.0000
     25 C         139.4156  144.3333  164.2046 C.ar    1  UNL1       -0.0003
     26 C         140.4866  143.6448  164.9976 C.ar    1  UNL1       -0.0042
     27 C         143.5750  142.4308  165.4469 C.3     1  UNL1        0.0958
     28 N         144.7552  142.0703  164.5941 N.3     1  UNL1       -0.1791
     29 H         145.1650  141.2287  164.9991 H       1  UNL1        0.1488
     30 S         144.5682  141.7998  163.1306 S.O2    1  UNL1        0.0602
     31 O         144.2895  143.2551  162.8972 O.2     1  UNL1       -0.1530
     32 O         144.8469  140.3446  163.3640 O.2     1  UNL1       -0.1530
     33 C         144.3812  141.5293  161.6671 C.ar    1  UNL1        0.1219
     34 C         144.6244  142.6195  160.6658 C.ar    1  UNL1        0.0199
     35 C         144.4374  142.3489  159.2023 C.ar    1  UNL1        0.0014
     36 C         144.0073  140.9883  158.7401 C.ar    1  UNL1        0.0001
     37 C         143.7641  139.8982  159.7414 C.ar    1  UNL1        0.0014
     38 C         143.9510  140.1687  161.2049 C.ar    1  UNL1        0.0199
@<TRIPOS>BOND
     1    11    12    1
     2    12    13   ar
     3    13    14   ar
     4    14    15   ar
     5    15    17    1
     6    17    18    1
     7    17    19    1
     8    15    16   ar
     9     3    16    1
    10     3     4    1
    11     5     4    1
    12     5     6    1
    13     6     7    1
    14     8     7    1
    15     8     9    1
    16     8    10    1
    17    10     2    1
    18     2     1    1
    19     1    20    1
    20    20    27    1
    21    27    28    1
    22    28    30    1
    23    30    31    2
    24    30    32    2
    25    30    33    1
    26    33    34   ar
    27    34    35   ar
    28    35    36   ar
    29    36    37   ar
    30    37    38   ar
    31    20    21    1
    32    21    22   ar
    33    22    23   ar
    34    23    24   ar
    35    24    25   ar
    36    25    26   ar
    37    16    12   ar
    38     9     3    1
    39    38    33   ar
    40    26    21   ar
    41    10     5    1
    42    28    29    1
@<TRIPOS>MOLECULE
*****
 38 42 0 0 0
SMALL
GASTEIGER

@<TRIPOS>ATOM
      1 C         140.6453  141.7835  163.7097 C.3     1  UNL1        0.0231
      2 C         140.0901  141.7518  162.3166 C.3     1  UNL1        0.0724
      3 C         139.9551  141.6718  162.3094 C.3     1  UNL1        0.0904
      4 C         140.6981  140.6433  161.5094 C.3     1  UNL1        0.0386
      5 C         139.9853  139.4201  161.0138 C.3     1  UNL1        0.0594
      6 C         138.9151  138.4055  160.7395 C.3     1  UNL1        0.0174
      7 C         137.6456  138.8870  161.3772 C.3     1  UNL1        0.0174
      8 C         137.9312  140.1991  162.0456 C.3     1  UNL1        0.0594
      9 C         138.4993  141.4772  162.6138 C.3     1  UNL1        0.0386
     10 N         139.3772  140.5286  161.8210 N.3     1  UNL1       -0.2751
     11 C         138.9433  143.6428  164.7055 C.3     1  UNL1        0.0738
     12 C         140.2029  143.8011  163.9064 C.ar    1  UNL1        0.1433
     13 N         141.2185  144.8930  164.0683 N.ar    1  UNL1       -0.1337
     14 N         142.3112  144.6619  163.0672 N.ar    1  UNL1       -0.1337
     15 C         141.9710  143.4272  162.2864 C.ar    1  UNL1        0.1425
     16 N         140.6680  142.8951  162.8051 N.ar    1  UNL1       -0.3039
     17 C         142.7900  142.8294  161.1810 C.3     1  UNL1        0.0588
     18 C         142.4485  143.1246  159.7506 C.3     1  UNL1        0.0080
     19 C         143.9506  141.9363  161.5060 C.3     1  UNL1        0.0080
     20 C         141.0813  140.5105  164.3724 C.3     1  UNL1        0.0411
     21 C         140.0650  139.6122  165.0129 C.ar    1  UNL1       -0.0211
     22 C         139.8986  138.2025  164.5278 C.ar    1  UNL1       -0.0042
     23 C         138.8824  137.3040  165.1682 C.ar    1  UNL1       -0.0003
     24 C         138.0325  137.8153  166.2937 C.ar    1  UNL1       -0.0000
     25 C         138.1990  139.2249  166.7787 C.ar    1  UNL1       -0.0003
     26 C         139.2152  140.1234  166.1383 C.ar    1  UNL1       -0.0042
     27 C         142.5336  140.1357  164.3948 C.3     1  UNL1        0.0958
     28 N         143.4718  140.8259  165.3400 N.3     1  UNL1       -0.1791
     29 H         143.9509  141.5492  164.8036 H       1  UNL1        0.1488
     30 S         142.9391  141.4856  166.5773 S.O2    1  UNL1        0.0602
     31 O         143.1085  142.8297  165.9336 O.2     1  UNL1       -0.1530
     32 O         142.7696  140.1414  167.2210 O.2     1  UNL1       -0.1530
     33 C         142.4063  142.1452  167.8146 C.ar    1  UNL1        0.1219
     34 C         143.2830  142.2925  169.0229 C.ar    1  UNL1        0.0199
     35 C         142.7502  142.9522  170.2602 C.ar    1  UNL1        0.0014
     36 C         141.3407  143.4647  170.2893 C.ar    1  UNL1        0.0001
     37 C         140.4641  143.3174  169.0810 C.ar    1  UNL1        0.0014
     38 C         140.9968  142.6577  167.8437 C.ar    1  UNL1        0.0199
@<TRIPOS>BOND
     1    11    12    1
     2    12    13   ar
     3    13    14   ar
     4    14    15   ar
     5    15    17    1
     6    17    18    1
     7    17    19    1
     8    15    16   ar
     9     3    16    1
    10     3     4    1
    11     5     4    1
    12     5     6    1
    13     6     7    1
    14     8     7    1
    15     8     9    1
    16     8    10    1
    17    10     2    1
    18     2     1    1
    19     1    20    1
    20    20    27    1
    21    27    28    1
    22    28    30    1
    23    30    31    2
    24    30    32    2
    25    30    33    1
    26    33    34   ar
    27    34    35   ar
    28    35    36   ar
    29    36    37   ar
    30    37    38   ar
    31    20    21    1
    32    21    22   ar
    33    22    23   ar
    34    23    24   ar
    35    24    25   ar
    36    25    26   ar
    37    16    12   ar
    38     9     3    1
    39    38    33   ar
    40    26    21   ar
    41    10     5    1
    42    28    29    1
@<TRIPOS>MOLECULE
*****
 38 42 0 0 0
SMALL
GASTEIGER

@<TRIPOS>ATOM
      1 C         140.2497  142.2765  163.7860 C.3     1  UNL1        0.0231
      2 C         139.8333  141.7853  165.1408 C.3     1  UNL1        0.0724
      3 C         139.9536  141.7030  165.1991 C.3     1  UNL1        0.0904
      4 C         139.9922  142.7013  166.3179 C.3     1  UNL1        0.0386
      5 C         141.0099  142.5636  167.4112 C.3     1  UNL1        0.0594
      6 C         142.1455  142.0519  168.2469 C.3     1  UNL1        0.0174
      7 C         142.6886  140.8196  167.5862 C.3     1  UNL1        0.0174
      8 C         141.8885  140.5697  166.3422 C.3     1  UNL1        0.0594
      9 C         140.9328  140.5669  165.1736 C.3     1  UNL1        0.0386
     10 N         140.8510  141.6476  166.2341 N.3     1  UNL1       -0.2751
     11 C         137.9484  144.2387  164.7533 C.3     1  UNL1        0.0738
     12 C         138.0142  143.0062  163.9008 C.ar    1  UNL1        0.1433
     13 N         137.1699  142.7229  162.6938 N.ar    1  UNL1       -0.1337
     14 N         137.5699  141.3823  162.1527 N.ar    1  UNL1       -0.1337
     15 C         138.6613  140.8370  163.0253 C.ar    1  UNL1        0.1425
     16 N         138.9359  141.8407  164.1057 N.ar    1  UNL1       -0.3039
     17 C         139.3561  139.5195  162.8486 C.3     1  UNL1        0.0588
     18 C         140.4698  139.3865  161.8526 C.3     1  UNL1        0.0080
     19 C         138.9372  138.3347  163.6678 C.3     1  UNL1        0.0080
     20 C         141.3968  143.2340  163.6554 C.3     1  UNL1        0.0411
     21 C         142.7986  142.7135  163.5361 C.ar    1  UNL1       -0.0211
     22 C         143.8219  143.0705  164.5732 C.ar    1  UNL1       -0.0042
     23 C         145.2236  142.5500  164.4541 C.ar    1  UNL1       -0.0003
     24 C         145.6021  141.6725  163.2978 C.ar    1  UNL1       -0.0000
     25 C         144.5788  141.3155  162.2608 C.ar    1  UNL1       -0.0003
     26 C         143.1770  141.8360  162.3799 C.ar    1  UNL1       -0.0042
     27 C         141.1423  144.7123  163.6440 C.3     1  UNL1        0.0958
     28 N         141.3489  145.4993  162.3839 N.3     1  UNL1       -0.1791
     29 H         142.3566  145.5956  162.2587 H       1  UNL1        0.1488
     30 S         140.7977  144.9923  161.0842 S.O2    1  UNL1        0.0602
     31 O         139.4048  145.2698  161.5668 O.2     1  UNL1       -0.1530
     32 O         142.1905  144.7147  160.6017 O.2     1  UNL1       -0.1530
     33 C         140.2464  144.4853  159.7846 C.ar    1  UNL1        0.1219
     34 C         140.4721  145.2610  158.5206 C.ar    1  UNL1        0.0199
     35 C         139.9208  144.7540  157.2210 C.ar    1  UNL1        0.0014
     36 C         139.1439  143.4714  157.1852 C.ar    1  UNL1        0.0001
     37 C         138.9183  142.6957  158.4492 C.ar    1  UNL1        0.0014
     38 C         139.4695  143.2027  159.7488 C.ar    1  UNL1        0.0199
@<TRIPOS>BOND
     1    11    12    1
     2    12    13   ar
     3    13    14   ar
     4    14    15   ar
     5    15    17    1
     6    17    18    1
     7    17    19    1
     8    15    16   ar
     9     3    16    1
    10     3     4    1
    11     5     4    1
    12     5     6    1
    13     6     7    1
    14     8     7    1
    15     8     9    1
    16     8    10    1
    17    10     2    1
    18     2     1    1
    19     1    20    1
    20    20    27    1
    21    27    28    1
    22    28    30    1
    23    30    31    2
    24    30    32    2
    25    30    33    1
    26    33    34   ar
    27    34    35   ar
    28    35    36   ar
    29    36    37   ar
    30    37    38   ar
    31    20    21    1
    32    21    22   ar
    33    22    23   ar
    34    23    24   ar
    35    24    25   ar
    36    25    26   ar
    37    16    12   ar
    38     9     3    1
    39    38    33   ar
    40    26    21   ar
    41    10     5    1
    42    28    29    1
@<TRIPOS>MOLECULE
*****
 38 42 0 0 0
SMALL
GASTEIGER

@<TRIPOS>ATOM
      1 C         141.4271  140.1953  164.7293 C.3     1  UNL1        0.0231
      2 C         141.6327  139.3714  165.9658 C.3     1  UNL1        0.0724
      3 C         141.5239  139.4336  166.0605 C.3     1  UNL1        0.0904
      4 C         142.6047  139.5525  167.0939 C.3     1  UNL1        0.0386
      5 C         142.2929  140.1322  168.4417 C.3     1  UNL1        0.0594
      6 C         141.5553  140.7445  169.5954 C.3     1  UNL1        0.0174
      7 C         140.1275  140.9418  169.1804 C.3     1  UNL1        0.0174
      8 C         139.9826  140.4514  167.7702 C.3     1  UNL1        0.0594
      9 C         140.1315  139.8943  166.3750 C.3     1  UNL1        0.0386
     10 N         141.3210  139.9511  167.3137 N.3     1  UNL1       -0.2751
     11 C         144.4682  139.3140  164.6581 C.3     1  UNL1        0.0738
     12 C         143.1889  138.7989  164.0679 C.ar    1  UNL1        0.1433
     13 N         143.0383  138.1384  162.7296 N.ar    1  UNL1       -0.1337
     14 N         141.5920  137.7853  162.5471 N.ar    1  UNL1       -0.1337
     15 C         140.8487  138.2274  163.7726 C.ar    1  UNL1        0.1425
     16 N         141.8356  138.8539  164.7125 N.ar    1  UNL1       -0.3039
     17 C         139.3768  138.0706  164.0155 C.3     1  UNL1        0.0588
     18 C         138.3937  138.8493  163.1926 C.3     1  UNL1        0.0080
     19 C         138.8879  137.1351  165.0814 C.3     1  UNL1        0.0080
     20 C         141.5326  141.6900  164.7979 C.3     1  UNL1        0.0411
     21 C         140.3001  142.5355  164.6706 C.ar    1  UNL1       -0.0211
     22 C         140.0653  143.6675  165.6263 C.ar    1  UNL1       -0.0042
     23 C         138.8328  144.5131  165.4991 C.ar    1  UNL1       -0.0003
     24 C         137.8353  144.2266  164.4160 C.ar    1  UNL1       -0.0000
     25 C         138.0702  143.0946  163.4603 C.ar    1  UNL1       -0.0003
     26 C         139.3026  142.2490  163.5876 C.ar    1  UNL1       -0.0042
     27 C         142.8705  142.3393  164.9939 C.3     1  UNL1        0.0958
     28 N         143.6202  142.8834  163.8140 N.3     1  UNL1       -0.1791
     29 H         144.1830  142.1174  163.4440 H       1  UNL1        0.1488
     30 S         142.8705  143.4693  162.6545 S.O2    1  UNL1        0.0602
     31 O         142.6919  144.7489  163.4165 O.2     1  UNL1       -0.1530
     32 O         143.0492  142.1898  161.8924 O.2     1  UNL1       -0.1530
     33 C         142.1209  144.0553  161.4949 C.ar    1  UNL1        0.1219
     34 C         140.9969  145.0185  161.7380 C.ar    1  UNL1        0.0199
     35 C         140.2472  145.6044  160.5784 C.ar    1  UNL1        0.0014
     36 C         140.6215  145.2272  159.1757 C.ar    1  UNL1        0.0001
     37 C         141.7455  144.2640  158.9326 C.ar    1  UNL1        0.0014
     38 C         142.4952  143.6781  160.0921 C.ar    1  UNL1        0.0199
@<TRIPOS>BOND
     1    11    12    1
     2    12    13   ar
     3    13    14   ar
     4    14    15   ar
     5    15    17    1
     6    17    18    1
     7    17    19    1
     8    15    16   ar
     9     3    16    1
    10     3     4    1
    11     5     4    1
    12     5     6    1
    13     6     7    1
    14     8     7    1
    15     8     9    1
    16     8    10    1
    17    10     2    1
    18     2     1    1
    19     1    20    1
    20    20    27    1
    21    27    28    1
    22    28    30    1
    23    30    31    2
    24    30    32    2
    25    30    33    1
    26    33    34   ar
    27    34    35   ar
    28    35    36   ar
    29    36    37   ar
    30    37    38   ar
    31    20    21    1
    32    21    22   ar
    33    22    23   ar
    34    23    24   ar
    35    24    25   ar
    36    25    26   ar
    37    16    12   ar
    38     9     3    1
    39    38    33   ar
    40    26    21   ar
    41    10     5    1
    42    28    29    1
@<TRIPOS>MOLECULE
*****
 38 42 0 0 0
SMALL
GASTEIGER

@<TRIPOS>ATOM
      1 C         142.7089  142.6560  163.3925 C.3     1  UNL1        0.0231
      2 C         142.8948  143.6942  162.3259 C.3     1  UNL1        0.0724
      3 C         142.8015  143.8145  162.3642 C.3     1  UNL1        0.0904
      4 C         142.1132  143.5973  161.0493 C.3     1  UNL1        0.0386
      5 C         140.9651  144.4760  160.6496 C.3     1  UNL1        0.0594
      6 C         139.9139  145.5458  160.6673 C.3     1  UNL1        0.0174
      7 C         140.0458  146.3039  161.9548 C.3     1  UNL1        0.0174
      8 C         141.1785  145.7026  162.7329 C.3     1  UNL1        0.0594
      9 C         142.3416  144.9104  163.2794 C.3     1  UNL1        0.0386
     10 N         141.7467  144.5728  161.9262 N.3     1  UNL1       -0.2751
     11 C         144.3090  143.8266  165.2585 C.3     1  UNL1        0.0738
     12 C         144.6426  142.9414  164.0943 C.ar    1  UNL1        0.1433
     13 N         145.7277  141.9064  164.0561 N.ar    1  UNL1       -0.1337
     14 N         145.7053  141.2613  162.7022 N.ar    1  UNL1       -0.1337
     15 C         144.6065  141.8975  161.9036 C.ar    1  UNL1        0.1425
     16 N         143.9497  142.9359  162.7640 N.ar    1  UNL1       -0.3039
     17 C         144.2305  141.5553  160.4923 C.3     1  UNL1        0.0588
     18 C         143.4003  140.3380  160.2115 C.3     1  UNL1        0.0080
     19 C         144.6846  142.4306  159.3619 C.3     1  UNL1        0.0080
     20 C         141.4167  141.9002  163.4862 C.3     1  UNL1        0.0411
     21 C         140.1691  142.6005  163.9369 C.ar    1  UNL1       -0.0211
     22 C         138.9529  142.6053  163.0587 C.ar    1  UNL1       -0.0042
     23 C         137.7053  143.3055  163.5093 C.ar    1  UNL1       -0.0003
     24 C         137.6738  144.0010  164.8380 C.ar    1  UNL1       -0.0000
     25 C         138.8899  143.9962  165.7161 C.ar    1  UNL1       -0.0003
     26 C         140.1376  143.2959  165.2655 C.ar    1  UNL1       -0.0042
     27 C         141.3719  140.4439  163.1293 C.3     1  UNL1        0.0958
     28 N         141.9467  139.4238  164.0669 N.3     1  UNL1       -0.1791
     29 H         142.9567  139.4286  163.9240 H       1  UNL1        0.1488
     30 S         141.7178  139.5497  165.5440 S.O2    1  UNL1        0.0602
     31 O         140.2746  139.1894  165.3510 O.2     1  UNL1       -0.1530
     32 O         143.1610  139.9100  165.7369 O.2     1  UNL1       -0.1530
     33 C         141.4889  139.6756  167.0210 C.ar    1  UNL1        0.1219
     34 C         140.1386  140.0733  167.5395 C.ar    1  UNL1        0.0199
     35 C         139.9097  140.1991  169.0166 C.ar    1  UNL1        0.0014
     36 C         141.0310  139.9274  169.9752 C.ar    1  UNL1        0.0001
     37 C         142.3813  139.5297  169.4567 C.ar    1  UNL1        0.0014
     38 C         142.6102  139.4039  167.9796 C.ar    1  UNL1        0.0199
@<TRIPOS>BOND
     1    11    12    1
     2    12    13   ar
     3    13    14   ar
     4    14    15   ar
     5    15    17    1
     6    17    18    1
     7    17    19    1
     8    15    16   ar
     9     3    16    1
    10     3     4    1
    11     5     4    1
    12     5     6    1
    13     6     7    1
    14     8     7    1
    15     8     9    1
    16     8    10    1
    17    10     2    1
    18     2     1    1
    19     1    20    1
    20    20    27    1
    21    27    28    1
    22    28    30    1
    23    30    31    2
    24    30    32    2
    25    30    33    1
    26    33    34   ar
    27    34    35   ar
    28    35    36   ar
    29    36    37   ar
    30    37    38   ar
    31    20    21    1
    32    21    22   ar
    33    22    23   ar
    34    23    24   ar
    35    24    25   ar
    36    25    26   ar
    37    16    12   ar
    38     9     3    1
    39    38    33   ar
    40    26    21   ar
    41    10     5    1
    42    28    29    1
@<TRIPOS>MOLECULE
*****
 38 42 0 0 0
SMALL
GASTEIGER

@<TRIPOS>ATOM
      1 C         140.4186  141.8409  162.6710 C.3     1  UNL1        0.0231
      2 C         140.5028  142.0979  161.1955 C.3     1  UNL1        0.0724
      3 C         140.6398  142.1687  161.1657 C.3     1  UNL1        0.0904
      4 C         140.9902  140.9682  160.3375 C.3     1  UNL1        0.0386
      5 C         142.3158  140.9001  159.6388 C.3     1  UNL1        0.0594
      6 C         143.6880  141.2515  159.1452 C.3     1  UNL1        0.0174
      7 C         144.0486  142.5984  159.6982 C.3     1  UNL1        0.0174
      8 C         142.8994  143.0794  160.5335 C.3     1  UNL1        0.0594
      9 C         141.6150  143.3011  161.2952 C.3     1  UNL1        0.0386
     10 N         141.8284  142.0298  160.4968 N.3     1  UNL1       -0.2751
     11 C         138.3151  139.8795  161.0963 C.3     1  UNL1        0.0738
     12 C         138.2456  141.1846  161.8325 C.ar    1  UNL1        0.1433
     13 N         137.0954  141.6666  162.6661 N.ar    1  UNL1       -0.1337
     14 N         137.4532  143.0167  163.2131 N.ar    1  UNL1       -0.1337
     15 C         138.8244  143.3691  162.7177 C.ar    1  UNL1        0.1425
     16 N         139.3142  142.2368  161.8644 N.ar    1  UNL1       -0.3039
     17 C         139.5742  144.6321  163.0220 C.3     1  UNL1        0.0588
     18 C         139.5880  145.7545  162.0270 C.3     1  UNL1        0.0080
     19 C         140.3104  144.7728  164.3214 C.3     1  UNL1        0.0080
     20 C         141.3458  140.8528  163.3142 C.3     1  UNL1        0.0411
     21 C         142.7566  141.2477  163.6360 C.ar    1  UNL1       -0.0211
     22 C         143.0208  142.3929  164.5681 C.ar    1  UNL1       -0.0042
     23 C         144.4317  142.7879  164.8900 C.ar    1  UNL1       -0.0003
     24 C         145.5783  142.0375  164.2798 C.ar    1  UNL1       -0.0000
     25 C         145.3141  140.8923  163.3478 C.ar    1  UNL1       -0.0003
     26 C         143.9033  140.4974  163.0259 C.ar    1  UNL1       -0.0042
     27 C         140.8622  139.4697  163.6358 C.3     1  UNL1        0.0958
     28 N         139.7992  139.2696  164.6750 N.3     1  UNL1       -0.1791
     29 H         139.8043  138.2781  164.9144 H       1  UNL1        0.1488
     30 S         139.8621  140.0275  165.9679 S.O2    1  UNL1        0.0602
     31 O         138.6274  140.7872  165.5827 O.2     1  UNL1       -0.1530
     32 O         141.0968  139.2678  166.3531 O.2     1  UNL1       -0.1530
     33 C         139.9251  140.7854  167.2608 C.ar    1  UNL1        0.1219
     34 C         139.4286  140.1518  168.5266 C.ar    1  UNL1        0.0199
     35 C         139.4916  140.9097  169.8195 C.ar    1  UNL1        0.0014
     36 C         140.0510  142.3012  169.8467 C.ar    1  UNL1        0.0001
     37 C         140.5475  142.9348  168.5809 C.ar    1  UNL1        0.0014
     38 C         140.4845  142.1769  167.2880 C.ar    1  UNL1        0.0199
@<TRIPOS>BOND
     1    11    12    1
     2    12    13   ar
     3    13    14   ar
     4    14    15   ar
     5    15    17    1
     6    17    18    1
     7    17    19    1
     8    15    16   ar
     9     3    16    1
    10     3     4    1
    11     5     4    1
    12     5     6    1
    13     6     7    1
    14     8     7    1
    15     8     9    1
    16     8    10    1
    17    10     2    1
    18     2     1    1
    19     1    20    1
    20    20    27    1
    21    27    28    1
    22    28    30    1
    23    30    31    2
    24    30    32    2
    25    30    33    1
    26    33    34   ar
    27    34    35   ar
    28    35    36   ar
    29    36    37   ar
    30    37    38   ar
    31    20    21    1
    32    21    22   ar
    33    22    23   ar
    34    23    24   ar
    35    24    25   ar
    36    25    26   ar
    37    16    12   ar
    38     9     3    1
    39    38    33   ar
    40    26    21   ar
    41    10     5    1
    42    28    29    1
