@<TRIPOS>MOLECULE
*****
 33 37 0 0 0
SMALL
GASTEIGER

@<TRIPOS>ATOM
      1 N         140.0880  138.2865  161.8136 N.3     1  UNL1       -0.2695
      2 C         140.2780  137.8084  163.2226 C.3     1  UNL1        0.0939
      3 C         141.5358  138.1473  163.9664 C.3     1  UNL1        0.1107
      4 N         142.6035  138.9643  163.3012 N.am    1  UNL1       -0.2764
      5 C         143.8613  139.3031  164.0450 C.2     1  UNL1        0.2301
      6 O         144.9290  140.1201  163.3798 O.2     1  UNL1       -0.2745
      7 C         142.4134  139.4424  161.8922 C.3     1  UNL1        0.1107
      8 C         141.1557  139.1035  161.1484 C.3     1  UNL1        0.0939
      9 C         138.8302  137.9477  161.0698 C.3     1  UNL1        0.0769
     10 C         137.6556  138.8793  161.1192 C.3     1  UNL1        0.0433
     11 C         138.5329  140.8147  159.0015 C.3     1  UNL1        0.0307
     12 C         138.2976  141.2930  160.4037 C.ar    1  UNL1       -0.0256
     13 C         138.5011  142.7389  160.7469 C.ar    1  UNL1        0.0017
     14 C         138.2659  143.2172  162.1490 C.ar    1  UNL1        0.0748
     15 C         137.8272  142.2495  163.2079 C.ar    1  UNL1        0.0272
     16 C         137.6238  140.8035  162.8647 C.ar    1  UNL1       -0.0050
     17 C         137.8590  140.3253  161.4625 C.ar    1  UNL1       -0.0249
     18 C         137.6742  143.0070  164.4935 C.3     1  UNL1        0.2356
     19 O         138.0183  144.4428  164.2292 O.3     1  UNL1       -0.4404
     20 C         138.3840  144.5728  162.7802 C.2     1  UNL1        0.3413
     21 O         138.7955  145.8364  162.0846 O.2     1  UNL1       -0.2449
     22 C         144.0513  138.8249  165.4540 C.3     1  UNL1        0.1116
     23 C         143.3292  139.5035  166.5800 C.ar    1  UNL1       -0.0130
     24 C         143.0096  138.7427  167.8326 C.ar    1  UNL1       -0.0022
     25 C         142.2875  139.4213  168.9588 C.ar    1  UNL1        0.0190
     26 C         141.8849  140.8607  168.8323 C.ar    1  UNL1        0.0862
     27 C         142.2044  141.6215  167.5796 C.ar    1  UNL1        0.0190
     28 C         142.9266  140.9429  166.4535 C.ar    1  UNL1       -0.0022
     29 N         141.1628  141.5393  169.9583 N.ar    1  UNL1       -0.1886
     30 C         140.0420  142.5265  169.8192 C.ar    1  UNL1        0.2258
     31 N         139.6213  142.9471  171.1961 N.ar    1  UNL1       -0.1045
     32 N         140.4819  142.2199  172.1863 N.ar    1  UNL1       -0.0222
     33 N         141.4346  141.3498  171.4212 N.ar    1  UNL1       -0.0385
@<TRIPOS>BOND
     1    11    12    1
     2    12    13   ar
     3    13    14   ar
     4    14    15   ar
     5    15    16   ar
     6    16    17   ar
     7    17    10    1
     8    10     9    1
     9     9     1    1
    10     1     2    1
    11     2     3    1
    12     3     4    1
    13     4     5   am
    14     5     6    2
    15     5    22    1
    16    22    23    1
    17    23    24   ar
    18    24    25   ar
    19    25    26   ar
    20    26    29    1
    21    29    30   ar
    22    30    31   ar
    23    31    32   ar
    24    32    33   ar
    25    26    27   ar
    26    27    28   ar
    27     4     7    1
    28     7     8    1
    29    15    18    1
    30    18    19    1
    31    19    20    1
    32    20    21    2
    33    17    12   ar
    34     8     1    1
    35    20    14    1
    36    28    23   ar
    37    33    29   ar
@<TRIPOS>MOLECULE
*****
 33 37 0 0 0
SMALL
GASTEIGER

@<TRIPOS>ATOM
      1 N         142.7943  141.5769  161.0702 N.3     1  UNL1       -0.2695
      2 C         143.4819  141.4128  162.3933 C.3     1  UNL1        0.0939
      3 C         143.1557  140.2382  163.2673 C.3     1  UNL1        0.1107
      4 N         142.1422  139.2276  162.8184 N.am    1  UNL1       -0.2764
      5 C         141.8162  138.0531  163.6925 C.2     1  UNL1        0.2301
      6 O         140.8026  137.0425  163.2435 O.2     1  UNL1       -0.2745
      7 C         141.4547  139.3918  161.4953 C.3     1  UNL1        0.1107
      8 C         141.7808  140.5664  160.6213 C.3     1  UNL1        0.0939
      9 C         143.1203  142.7515  160.1962 C.3     1  UNL1        0.0769
     10 C         142.4699  144.0790  160.4504 C.3     1  UNL1        0.0433
     11 C         143.5857  145.0541  163.0588 C.3     1  UNL1        0.0307
     12 C         142.1231  144.7441  162.9378 C.ar    1  UNL1       -0.0256
     13 C         141.2184  144.9217  164.1210 C.ar    1  UNL1        0.0017
     14 C         139.7558  144.6117  164.0001 C.ar    1  UNL1        0.0748
     15 C         139.1978  144.1241  162.6959 C.ar    1  UNL1        0.0272
     16 C         140.1025  143.9466  161.5126 C.ar    1  UNL1       -0.0050
     17 C         141.5651  144.2566  161.6337 C.ar    1  UNL1       -0.0249
     18 C         137.7256  143.9008  162.8761 C.3     1  UNL1        0.2356
     19 O         137.3736  144.2503  164.2917 O.3     1  UNL1       -0.4404
     20 C         138.6284  144.6897  164.9864 C.2     1  UNL1        0.3413
     21 O         138.7366  145.1297  166.4163 O.2     1  UNL1       -0.2449
     22 C         142.5037  137.8890  165.0155 C.3     1  UNL1        0.1116
     23 C         142.0772  138.7185  166.1902 C.ar    1  UNL1       -0.0130
     24 C         140.7133  139.3424  166.2120 C.ar    1  UNL1       -0.0022
     25 C         140.2868  140.1720  167.3868 C.ar    1  UNL1        0.0190
     26 C         141.2241  140.3776  168.5396 C.ar    1  UNL1        0.0862
     27 C         142.5880  139.7536  168.5177 C.ar    1  UNL1        0.0190
     28 C         143.0146  138.9241  167.3431 C.ar    1  UNL1       -0.0022
     29 N         140.7976  141.2071  169.7144 N.ar    1  UNL1       -0.1886
     30 C         140.0586  142.5109  169.6512 C.ar    1  UNL1        0.2258
     31 N         139.8396  142.9880  171.0563 N.ar    1  UNL1       -0.1045
     32 N         140.4432  141.9791  171.9880 N.ar    1  UNL1       -0.0222
     33 N         141.0353  140.8784  171.1585 N.ar    1  UNL1       -0.0385
@<TRIPOS>BOND
     1    11    12    1
     2    12    13   ar
     3    13    14   ar
     4    14    15   ar
     5    15    16   ar
     6    16    17   ar
     7    17    10    1
     8    10     9    1
     9     9     1    1
    10     1     2    1
    11     2     3    1
    12     3     4    1
    13     4     5   am
    14     5     6    2
    15     5    22    1
    16    22    23    1
    17    23    24   ar
    18    24    25   ar
    19    25    26   ar
    20    26    29    1
    21    29    30   ar
    22    30    31   ar
    23    31    32   ar
    24    32    33   ar
    25    26    27   ar
    26    27    28   ar
    27     4     7    1
    28     7     8    1
    29    15    18    1
    30    18    19    1
    31    19    20    1
    32    20    21    2
    33    17    12   ar
    34     8     1    1
    35    20    14    1
    36    28    23   ar
    37    33    29   ar
@<TRIPOS>MOLECULE
*****
 33 37 0 0 0
SMALL
GASTEIGER

@<TRIPOS>ATOM
      1 N         139.8952  141.7983  160.8557 N.3     1  UNL1       -0.2695
      2 C         139.0469  141.7358  162.0912 C.3     1  UNL1        0.0939
      3 C         139.0336  140.4921  162.9297 C.3     1  UNL1        0.1107
      4 N         139.8686  139.3109  162.5327 N.am    1  UNL1       -0.2764
      5 C         139.8553  138.0673  163.3713 C.2     1  UNL1        0.2301
      6 O         140.6902  136.8861  162.9743 O.2     1  UNL1       -0.2745
      7 C         140.7169  139.3734  161.2972 C.3     1  UNL1        0.1107
      8 C         140.7302  140.6171  160.4587 C.3     1  UNL1        0.0939
      9 C         139.9086  143.0419  160.0171 C.3     1  UNL1        0.0769
     10 C         140.9381  144.1039  160.2670 C.3     1  UNL1        0.0433
     11 C         140.5059  145.7996  162.7038 C.3     1  UNL1        0.0307
     12 C         141.6525  144.8336  162.6559 C.ar    1  UNL1       -0.0256
     13 C         142.5830  144.7156  163.8265 C.ar    1  UNL1        0.0017
     14 C         143.7297  143.7497  163.7786 C.ar    1  UNL1        0.0748
     15 C         143.9458  142.9019  162.5602 C.ar    1  UNL1        0.0272
     16 C         143.0153  143.0199  161.3897 C.ar    1  UNL1       -0.0050
     17 C         141.8686  143.9859  161.4376 C.ar    1  UNL1       -0.0249
     18 C         145.1531  142.0447  162.8002 C.3     1  UNL1        0.2356
     19 O         145.6832  142.3628  164.1668 O.3     1  UNL1       -0.4404
     20 C         144.8034  143.4165  164.7716 C.2     1  UNL1        0.3413
     21 O         144.9685  144.0295  166.1306 O.2     1  UNL1       -0.2449
     22 C         139.0069  138.0048  164.6068 C.3     1  UNL1        0.1116
     23 C         139.4111  138.7678  165.8333 C.ar    1  UNL1       -0.0130
     24 C         138.3980  139.0667  166.8983 C.ar    1  UNL1       -0.0022
     25 C         138.8021  139.8297  168.1250 C.ar    1  UNL1        0.0190
     26 C         140.2194  140.2937  168.2866 C.ar    1  UNL1        0.0862
     27 C         141.2324  139.9947  167.2215 C.ar    1  UNL1        0.0190
     28 C         140.8283  139.2318  165.9949 C.ar    1  UNL1       -0.0022
     29 N         140.6235  141.0566  169.5132 N.ar    1  UNL1       -0.1886
     30 C         141.6701  142.1291  169.5794 C.ar    1  UNL1        0.2258
     31 N         141.7455  142.6163  170.9961 N.ar    1  UNL1       -0.1045
     32 N         140.7454  141.8449  171.8055 N.ar    1  UNL1       -0.0222
     33 N         140.0521  140.8810  170.8889 N.ar    1  UNL1       -0.0385
@<TRIPOS>BOND
     1    11    12    1
     2    12    13   ar
     3    13    14   ar
     4    14    15   ar
     5    15    16   ar
     6    16    17   ar
     7    17    10    1
     8    10     9    1
     9     9     1    1
    10     1     2    1
    11     2     3    1
    12     3     4    1
    13     4     5   am
    14     5     6    2
    15     5    22    1
    16    22    23    1
    17    23    24   ar
    18    24    25   ar
    19    25    26   ar
    20    26    29    1
    21    29    30   ar
    22    30    31   ar
    23    31    32   ar
    24    32    33   ar
    25    26    27   ar
    26    27    28   ar
    27     4     7    1
    28     7     8    1
    29    15    18    1
    30    18    19    1
    31    19    20    1
    32    20    21    2
    33    17    12   ar
    34     8     1    1
    35    20    14    1
    36    28    23   ar
    37    33    29   ar
@<TRIPOS>MOLECULE
*****
 33 37 0 0 0
SMALL
GASTEIGER

@<TRIPOS>ATOM
      1 N         138.6182  140.2976  159.9594 N.3     1  UNL1       -0.2695
      2 C         137.7502  140.2604  161.1822 C.3     1  UNL1        0.0939
      3 C         138.1231  139.3827  162.3402 C.3     1  UNL1        0.1107
      4 N         139.3639  138.5424  162.2753 N.am    1  UNL1       -0.2764
      5 C         139.7367  137.6648  163.4333 C.2     1  UNL1        0.2301
      6 O         140.9775  136.8244  163.3684 O.2     1  UNL1       -0.2745
      7 C         140.2318  138.5796  161.0524 C.3     1  UNL1        0.1107
      8 C         139.8589  139.4572  159.8946 C.3     1  UNL1        0.0939
      9 C         138.2453  141.1752  158.8015 C.3     1  UNL1        0.0769
     10 C         138.6340  142.6239  158.8028 C.3     1  UNL1        0.0433
     11 C         141.4883  142.5189  157.8849 C.3     1  UNL1        0.0307
     12 C         141.1576  143.0530  159.2471 C.ar    1  UNL1       -0.0256
     13 C         142.2541  143.5345  160.1503 C.ar    1  UNL1        0.0017
     14 C         141.9236  144.0685  161.5124 C.ar    1  UNL1        0.0748
     15 C         140.4965  144.1210  161.9714 C.ar    1  UNL1        0.0272
     16 C         139.4000  143.6395  161.0682 C.ar    1  UNL1       -0.0050
     17 C         139.7306  143.1055  159.7060 C.ar    1  UNL1       -0.0249
     18 C         140.4760  144.6949  163.3572 C.3     1  UNL1        0.2356
     19 O         141.8905  144.9970  163.7546 O.3     1  UNL1       -0.4404
     20 C         142.7851  144.6099  162.6145 C.2     1  UNL1        0.3413
     21 O         144.2790  144.7412  162.5822 O.2     1  UNL1       -0.2449
     22 C         138.8687  137.6276  164.6561 C.3     1  UNL1        0.1116
     23 C         139.1713  138.5265  165.8181 C.ar    1  UNL1       -0.0130
     24 C         138.1542  138.7162  166.9042 C.ar    1  UNL1       -0.0022
     25 C         138.4568  139.6152  168.0663 C.ar    1  UNL1        0.0190
     26 C         139.7763  140.3245  168.1423 C.ar    1  UNL1        0.0862
     27 C         140.7933  140.1347  167.0561 C.ar    1  UNL1        0.0190
     28 C         140.4908  139.2358  165.8940 C.ar    1  UNL1       -0.0022
     29 N         140.0789  141.2234  169.3043 N.ar    1  UNL1       -0.1886
     30 C         140.3798  142.6910  169.2287 C.ar    1  UNL1        0.2258
     31 N         140.6205  143.1871  170.6237 N.ar    1  UNL1       -0.1045
     32 N         140.4684  142.0262  171.5614 N.ar    1  UNL1       -0.0222
     33 N         140.1336  140.8126  170.7459 N.ar    1  UNL1       -0.0385
@<TRIPOS>BOND
     1    11    12    1
     2    12    13   ar
     3    13    14   ar
     4    14    15   ar
     5    15    16   ar
     6    16    17   ar
     7    17    10    1
     8    10     9    1
     9     9     1    1
    10     1     2    1
    11     2     3    1
    12     3     4    1
    13     4     5   am
    14     5     6    2
    15     5    22    1
    16    22    23    1
    17    23    24   ar
    18    24    25   ar
    19    25    26   ar
    20    26    29    1
    21    29    30   ar
    22    30    31   ar
    23    31    32   ar
    24    32    33   ar
    25    26    27   ar
    26    27    28   ar
    27     4     7    1
    28     7     8    1
    29    15    18    1
    30    18    19    1
    31    19    20    1
    32    20    21    2
    33    17    12   ar
    34     8     1    1
    35    20    14    1
    36    28    23   ar
    37    33    29   ar
@<TRIPOS>MOLECULE
*****
 33 37 0 0 0
SMALL
GASTEIGER

@<TRIPOS>ATOM
      1 N         141.9856  141.8627  159.6077 N.3     1  UNL1       -0.2695
      2 C         141.6865  140.6685  160.4647 C.3     1  UNL1        0.0939
      3 C         142.6202  140.2902  161.5761 C.3     1  UNL1        0.1107
      4 N         143.8529  141.1061  161.8306 N.am    1  UNL1       -0.2764
      5 C         144.7865  140.7278  162.9420 C.2     1  UNL1        0.2301
      6 O         146.0192  141.5436  163.1964 O.2     1  UNL1       -0.2745
      7 C         144.1519  142.3003  160.9735 C.3     1  UNL1        0.1107
      8 C         143.2183  142.6785  159.8621 C.3     1  UNL1        0.0939
      9 C         141.0520  142.2410  158.4963 C.3     1  UNL1        0.0769
     10 C         139.7865  142.9864  158.8008 C.3     1  UNL1        0.0433
     11 C         140.8355  145.5029  160.0527 C.3     1  UNL1        0.0307
     12 C         139.9604  144.5786  160.8465 C.ar    1  UNL1       -0.0256
     13 C         139.6099  144.9126  162.2662 C.ar    1  UNL1        0.0017
     14 C         138.7349  143.9884  163.0600 C.ar    1  UNL1        0.0748
     15 C         138.2103  142.7302  162.4341 C.ar    1  UNL1        0.0272
     16 C         138.5609  142.3962  161.0144 C.ar    1  UNL1       -0.0050
     17 C         139.4359  143.3205  160.2206 C.ar    1  UNL1       -0.0249
     18 C         137.3753  142.0173  163.4561 C.3     1  UNL1        0.2356
     19 O         137.3837  142.8349  164.7136 O.3     1  UNL1       -0.4404
     20 C         138.2240  144.0531  164.4688 C.2     1  UNL1        0.3413
     21 O         138.5041  145.1445  165.4591 O.2     1  UNL1       -0.2449
     22 C         144.4874  139.5335  163.7990 C.3     1  UNL1        0.1116
     23 C         143.7926  139.7111  165.1164 C.ar    1  UNL1       -0.0130
     24 C         143.1545  141.0252  165.4567 C.ar    1  UNL1       -0.0022
     25 C         142.4597  141.2028  166.7742 C.ar    1  UNL1        0.0190
     26 C         142.4031  140.0663  167.7515 C.ar    1  UNL1        0.0862
     27 C         143.0413  138.7521  167.4112 C.ar    1  UNL1        0.0190
     28 C         143.7361  138.5745  166.0937 C.ar    1  UNL1       -0.0022
     29 N         141.7084  140.2438  169.0690 N.ar    1  UNL1       -0.1886
     30 C         142.3110  140.8289  170.3117 C.ar    1  UNL1        0.2258
     31 N         141.2641  140.8141  171.3858 N.ar    1  UNL1       -0.1045
     32 N         140.0143  140.2198  170.8069 N.ar    1  UNL1       -0.0222
     33 N         140.2890  139.8674  169.3750 N.ar    1  UNL1       -0.0385
@<TRIPOS>BOND
     1    11    12    1
     2    12    13   ar
     3    13    14   ar
     4    14    15   ar
     5    15    16   ar
     6    16    17   ar
     7    17    10    1
     8    10     9    1
     9     9     1    1
    10     1     2    1
    11     2     3    1
    12     3     4    1
    13     4     5   am
    14     5     6    2
    15     5    22    1
    16    22    23    1
    17    23    24   ar
    18    24    25   ar
    19    25    26   ar
    20    26    29    1
    21    29    30   ar
    22    30    31   ar
    23    31    32   ar
    24    32    33   ar
    25    26    27   ar
    26    27    28   ar
    27     4     7    1
    28     7     8    1
    29    15    18    1
    30    18    19    1
    31    19    20    1
    32    20    21    2
    33    17    12   ar
    34     8     1    1
    35    20    14    1
    36    28    23   ar
    37    33    29   ar
@<TRIPOS>MOLECULE
*****
 33 37 0 0 0
SMALL
GASTEIGER

@<TRIPOS>ATOM
      1 N         138.2127  140.0225  160.5923 N.3     1  UNL1       -0.2695
      2 C         137.7380  140.8735  161.7327 C.3     1  UNL1        0.0939
      3 C         137.8801  140.3840  163.1435 C.3     1  UNL1        0.1107
      4 N         138.4968  139.0436  163.4139 N.am    1  UNL1       -0.2764
      5 C         138.6388  138.5542  164.8247 C.2     1  UNL1        0.2301
      6 O         139.2554  137.2139  165.0950 O.2     1  UNL1       -0.2745
      7 C         138.9714  138.1927  162.2734 C.3     1  UNL1        0.1107
      8 C         138.8293  138.6821  160.8627 C.3     1  UNL1        0.0939
      9 C         138.0707  140.5119  159.1815 C.3     1  UNL1        0.0769
     10 C         138.9137  141.6533  158.6952 C.3     1  UNL1        0.0433
     11 C         141.6210  140.3657  158.5812 C.3     1  UNL1        0.0307
     12 C         141.3838  141.5341  159.4916 C.ar    1  UNL1       -0.0256
     13 C         142.5004  142.0587  160.3449 C.ar    1  UNL1        0.0017
     14 C         142.2633  143.2270  161.2552 C.ar    1  UNL1        0.0748
     15 C         140.9097  143.8708  161.3122 C.ar    1  UNL1        0.0272
     16 C         139.7931  143.3463  160.4589 C.ar    1  UNL1       -0.0050
     17 C         140.0303  142.1779  159.5485 C.ar    1  UNL1       -0.0249
     18 C         140.9742  144.9994  162.2982 C.3     1  UNL1        0.2356
     19 O         142.3678  145.0530  162.8506 O.3     1  UNL1       -0.4404
     20 C         143.1645  143.9577  162.2060 C.2     1  UNL1        0.3413
     21 O         144.6087  143.6475  162.4665 O.2     1  UNL1       -0.2449
     22 C         138.1641  139.4052  165.9651 C.3     1  UNL1        0.1116
     23 C         139.1560  140.1497  166.8088 C.ar    1  UNL1       -0.0130
     24 C         140.0351  141.1940  166.1870 C.ar    1  UNL1       -0.0022
     25 C         141.0271  141.9386  167.0307 C.ar    1  UNL1        0.0190
     26 C         141.1400  141.6388  168.4961 C.ar    1  UNL1        0.0862
     27 C         140.2609  140.5943  169.1177 C.ar    1  UNL1        0.0190
     28 C         139.2689  139.8498  168.2741 C.ar    1  UNL1       -0.0022
     29 N         142.1319  142.3832  169.3397 N.ar    1  UNL1       -0.1886
     30 C         143.6229  142.2258  169.2933 C.ar    1  UNL1        0.2258
     31 N         144.2194  143.1611  170.3029 N.ar    1  UNL1       -0.1045
     32 N         143.0970  143.8967  170.9733 N.ar    1  UNL1       -0.0222
     33 N         141.8069  143.4158  170.3780 N.ar    1  UNL1       -0.0385
@<TRIPOS>BOND
     1    11    12    1
     2    12    13   ar
     3    13    14   ar
     4    14    15   ar
     5    15    16   ar
     6    16    17   ar
     7    17    10    1
     8    10     9    1
     9     9     1    1
    10     1     2    1
    11     2     3    1
    12     3     4    1
    13     4     5   am
    14     5     6    2
    15     5    22    1
    16    22    23    1
    17    23    24   ar
    18    24    25   ar
    19    25    26   ar
    20    26    29    1
    21    29    30   ar
    22    30    31   ar
    23    31    32   ar
    24    32    33   ar
    25    26    27   ar
    26    27    28   ar
    27     4     7    1
    28     7     8    1
    29    15    18    1
    30    18    19    1
    31    19    20    1
    32    20    21    2
    33    17    12   ar
    34     8     1    1
    35    20    14    1
    36    28    23   ar
    37    33    29   ar
@<TRIPOS>MOLECULE
*****
 33 37 0 0 0
SMALL
GASTEIGER

@<TRIPOS>ATOM
      1 N         140.9581  145.0969  162.0718 N.3     1  UNL1       -0.2695
      2 C         141.4711  144.8183  163.4536 C.3     1  UNL1        0.0939
      3 C         142.7114  143.9959  163.6415 C.3     1  UNL1        0.1107
      4 N         143.4387  143.4520  162.4477 N.am    1  UNL1       -0.2764
      5 C         144.6789  142.6295  162.6357 C.2     1  UNL1        0.2301
      6 O         145.4063  142.0856  161.4419 O.2     1  UNL1       -0.2745
      7 C         142.9257  143.7305  161.0659 C.3     1  UNL1        0.1107
      8 C         141.6854  144.5530  160.8780 C.3     1  UNL1        0.0939
      9 C         139.7179  145.9193  161.8838 C.3     1  UNL1        0.0769
     10 C         138.3842  145.3702  162.2959 C.3     1  UNL1        0.0433
     11 C         138.4301  144.8820  165.2557 C.3     1  UNL1        0.0307
     12 C         138.3037  143.7271  164.3068 C.ar    1  UNL1       -0.0256
     13 C         138.2003  142.3281  164.8379 C.ar    1  UNL1        0.0017
     14 C         138.0740  141.1731  163.8892 C.ar    1  UNL1        0.0748
     15 C         138.0511  141.4172  162.4094 C.ar    1  UNL1        0.0272
     16 C         138.1545  142.8161  161.8782 C.ar    1  UNL1       -0.0050
     17 C         138.2808  143.9711  162.8271 C.ar    1  UNL1       -0.0249
     18 C         137.9178  140.0902  161.7227 C.3     1  UNL1        0.2356
     19 O         137.8584  139.0261  162.7782 O.3     1  UNL1       -0.4404
     20 C         137.9549  139.6953  164.1172 C.2     1  UNL1        0.3413
     21 O         137.9357  139.0075  165.4500 O.2     1  UNL1       -0.2449
     22 C         145.1919  142.3510  164.0175 C.3     1  UNL1        0.1116
     23 C         144.2538  141.8635  165.0815 C.ar    1  UNL1       -0.0130
     24 C         143.9433  142.7333  166.2635 C.ar    1  UNL1       -0.0022
     25 C         143.0051  142.2458  167.3276 C.ar    1  UNL1        0.0190
     26 C         142.3775  140.8885  167.2097 C.ar    1  UNL1        0.0862
     27 C         142.6880  140.0188  166.0277 C.ar    1  UNL1        0.0190
     28 C         143.6261  140.5062  164.9636 C.ar    1  UNL1       -0.0022
     29 N         141.4394  140.4010  168.2738 N.ar    1  UNL1       -0.1886
     30 C         141.8286  139.9259  169.6422 C.ar    1  UNL1        0.2258
     31 N         140.5771  139.5342  170.3703 N.ar    1  UNL1       -0.1045
     32 N         139.4142  139.7673  169.4519 N.ar    1  UNL1       -0.0222
     33 N         139.9472  140.3030  168.1561 N.ar    1  UNL1       -0.0385
@<TRIPOS>BOND
     1    11    12    1
     2    12    13   ar
     3    13    14   ar
     4    14    15   ar
     5    15    16   ar
     6    16    17   ar
     7    17    10    1
     8    10     9    1
     9     9     1    1
    10     1     2    1
    11     2     3    1
    12     3     4    1
    13     4     5   am
    14     5     6    2
    15     5    22    1
    16    22    23    1
    17    23    24   ar
    18    24    25   ar
    19    25    26   ar
    20    26    29    1
    21    29    30   ar
    22    30    31   ar
    23    31    32   ar
    24    32    33   ar
    25    26    27   ar
    26    27    28   ar
    27     4     7    1
    28     7     8    1
    29    15    18    1
    30    18    19    1
    31    19    20    1
    32    20    21    2
    33    17    12   ar
    34     8     1    1
    35    20    14    1
    36    28    23   ar
    37    33    29   ar
@<TRIPOS>MOLECULE
*****
 33 37 0 0 0
SMALL
GASTEIGER

@<TRIPOS>ATOM
      1 N         142.1109  140.1352  159.9163 N.3     1  UNL1       -0.2695
      2 C         141.7061  139.2503  161.0578 C.3     1  UNL1        0.0939
      3 C         142.5069  139.2491  162.3262 C.3     1  UNL1        0.1107
      4 N         143.7123  140.1327  162.4531 N.am    1  UNL1       -0.2764
      5 C         144.5130  140.1314  163.7215 C.2     1  UNL1        0.2301
      6 O         145.7185  141.0150  163.8483 O.2     1  UNL1       -0.2745
      7 C         144.1170  141.0176  161.3115 C.3     1  UNL1        0.1107
      8 C         143.3163  141.0188  160.0431 C.3     1  UNL1        0.0939
      9 C         141.3102  140.1365  158.6478 C.3     1  UNL1        0.0769
     10 C         140.1803  141.1079  158.4751 C.3     1  UNL1        0.0433
     11 C         138.0291  140.0175  160.2594 C.3     1  UNL1        0.0307
     12 C         138.6217  141.3672  160.5375 C.ar    1  UNL1       -0.0256
     13 C         138.1387  142.1716  161.7078 C.ar    1  UNL1        0.0017
     14 C         138.7313  143.5212  161.9861 C.ar    1  UNL1        0.0748
     15 C         139.8069  144.0664  161.0940 C.ar    1  UNL1        0.0272
     16 C         140.2899  143.2620  159.9237 C.ar    1  UNL1       -0.0050
     17 C         139.6973  141.9124  159.6455 C.ar    1  UNL1       -0.0249
     18 C         140.1994  145.4176  161.6137 C.3     1  UNL1        0.2356
     19 O         139.3664  145.7075  162.8269 O.3     1  UNL1       -0.4404
     20 C         138.4590  144.5354  163.0571 C.2     1  UNL1        0.3413
     21 O         137.4556  144.4012  164.1640 O.2     1  UNL1       -0.2449
     22 C         144.1083  139.2465  164.8630 C.3     1  UNL1        0.1116
     23 C         143.4158  139.8329  166.0574 C.ar    1  UNL1       -0.0130
     24 C         143.1568  141.3089  166.1245 C.ar    1  UNL1       -0.0022
     25 C         142.4643  141.8953  167.3189 C.ar    1  UNL1        0.0190
     26 C         142.0307  141.0058  168.4462 C.ar    1  UNL1        0.0862
     27 C         142.2896  139.5298  168.3790 C.ar    1  UNL1        0.0190
     28 C         142.9822  138.9434  167.1847 C.ar    1  UNL1       -0.0022
     29 N         141.3382  141.5922  169.6405 N.ar    1  UNL1       -0.1886
     30 C         141.7993  141.4920  171.0644 C.ar    1  UNL1        0.2258
     31 N         140.8090  142.2196  171.9245 N.ar    1  UNL1       -0.1045
     32 N         139.7358  142.7695  171.0323 N.ar    1  UNL1       -0.0222
     33 N         140.0629  142.3817  169.6207 N.ar    1  UNL1       -0.0385
@<TRIPOS>BOND
     1    11    12    1
     2    12    13   ar
     3    13    14   ar
     4    14    15   ar
     5    15    16   ar
     6    16    17   ar
     7    17    10    1
     8    10     9    1
     9     9     1    1
    10     1     2    1
    11     2     3    1
    12     3     4    1
    13     4     5   am
    14     5     6    2
    15     5    22    1
    16    22    23    1
    17    23    24   ar
    18    24    25   ar
    19    25    26   ar
    20    26    29    1
    21    29    30   ar
    22    30    31   ar
    23    31    32   ar
    24    32    33   ar
    25    26    27   ar
    26    27    28   ar
    27     4     7    1
    28     7     8    1
    29    15    18    1
    30    18    19    1
    31    19    20    1
    32    20    21    2
    33    17    12   ar
    34     8     1    1
    35    20    14    1
    36    28    23   ar
    37    33    29   ar
@<TRIPOS>MOLECULE
*****
 33 37 0 0 0
SMALL
GASTEIGER

@<TRIPOS>ATOM
      1 N         140.5951  141.4372  159.3998 N.3     1  UNL1       -0.2695
      2 C         141.7827  141.5311  160.3113 C.3     1  UNL1        0.0939
      3 C         141.9165  142.6923  161.2514 C.3     1  UNL1        0.1107
      4 N         140.8628  143.7595  161.2801 N.am    1  UNL1       -0.2764
      5 C         140.9967  144.9206  162.2202 C.2     1  UNL1        0.2301
      6 O         139.9430  145.9877  162.2489 O.2     1  UNL1       -0.2745
      7 C         139.6752  143.6655  160.3685 C.3     1  UNL1        0.1107
      8 C         139.5414  142.5043  159.4284 C.3     1  UNL1        0.0939
      9 C         140.4612  140.2761  158.4596 C.3     1  UNL1        0.0769
     10 C         139.8103  139.0067  158.9234 C.3     1  UNL1        0.0433
     11 C         137.2323  139.8230  160.2226 C.3     1  UNL1        0.0307
     12 C         138.3101  139.1722  161.0381 C.ar    1  UNL1       -0.0256
     13 C         138.0987  138.9295  162.5031 C.ar    1  UNL1        0.0017
     14 C         139.1764  138.2787  163.3187 C.ar    1  UNL1        0.0748
     15 C         140.4654  137.8705  162.6691 C.ar    1  UNL1        0.0272
     16 C         140.6767  138.1132  161.2040 C.ar    1  UNL1       -0.0050
     17 C         139.5989  138.7640  160.3885 C.ar    1  UNL1       -0.0249
     18 C         141.3394  137.2538  163.7206 C.3     1  UNL1        0.2356
     19 O         140.5906  137.2808  165.0200 O.3     1  UNL1       -0.4404
     20 C         139.2538  137.9142  164.7716 C.2     1  UNL1        0.3413
     21 O         138.1825  138.1430  165.7963 O.2     1  UNL1       -0.2449
     22 C         142.1842  145.0145  163.1317 C.3     1  UNL1        0.1116
     23 C         142.3276  144.0572  164.2776 C.ar    1  UNL1       -0.0130
     24 C         143.6908  143.6066  164.7122 C.ar    1  UNL1       -0.0022
     25 C         143.8342  142.6492  165.8581 C.ar    1  UNL1        0.0190
     26 C         142.6146  142.1426  166.5694 C.ar    1  UNL1        0.0862
     27 C         141.2516  142.5933  166.1347 C.ar    1  UNL1        0.0190
     28 C         141.1080  143.5505  164.9888 C.ar    1  UNL1       -0.0022
     29 N         142.7581  141.1853  167.7152 N.ar    1  UNL1       -0.1886
     30 C         142.6317  139.6926  167.6382 C.ar    1  UNL1        0.2258
     31 N         142.8485  139.1375  169.0147 N.ar    1  UNL1       -0.1045
     32 N         143.1090  140.2871  169.9425 N.ar    1  UNL1       -0.0222
     33 N         143.0530  141.5527  169.1393 N.ar    1  UNL1       -0.0385
@<TRIPOS>BOND
     1    11    12    1
     2    12    13   ar
     3    13    14   ar
     4    14    15   ar
     5    15    16   ar
     6    16    17   ar
     7    17    10    1
     8    10     9    1
     9     9     1    1
    10     1     2    1
    11     2     3    1
    12     3     4    1
    13     4     5   am
    14     5     6    2
    15     5    22    1
    16    22    23    1
    17    23    24   ar
    18    24    25   ar
    19    25    26   ar
    20    26    29    1
    21    29    30   ar
    22    30    31   ar
    23    31    32   ar
    24    32    33   ar
    25    26    27   ar
    26    27    28   ar
    27     4     7    1
    28     7     8    1
    29    15    18    1
    30    18    19    1
    31    19    20    1
    32    20    21    2
    33    17    12   ar
    34     8     1    1
    35    20    14    1
    36    28    23   ar
    37    33    29   ar
