@<TRIPOS>MOLECULE
*****
 42 48 0 0 0
SMALL
GASTEIGER

@<TRIPOS>ATOM
      1 C         141.8205  140.2838  166.2821 C.3     1  UNL1        0.1335
      2 C         142.4326  141.6521  166.2271 C.3     1  UNL1        0.0324
      3 C         143.6805  141.8839  165.4279 C.3     1  UNL1        0.0195
      4 C         144.3164  140.7473  164.6836 C.3     1  UNL1        0.0700
      5 C         143.7044  139.3791  164.7386 C.3     1  UNL1        0.0195
      6 C         142.4563  139.1472  165.5378 C.3     1  UNL1        0.0324
      7 C         143.6331  140.5717  165.1081 C.3     1  UNL1        0.1563
      8 O         142.5047  140.3621  165.8308 O.3     1  UNL1       -0.3535
      9 C         139.2383  139.6400  166.5333 C.3     1  UNL1        0.2404
     10 O         138.2808  139.5249  167.6822 O.3     1  UNL1       -0.4132
     11 C         139.0232  139.8657  168.9403 C.2     1  UNL1        0.5122
     12 O         138.4499  139.8785  170.3263 O.2     1  UNL1       -0.2028
     13 O         140.4396  140.1915  168.5689 O.3     1  UNL1       -0.4152
     14 C         140.5725  140.0520  167.0813 C.3     1  UNL1        0.2408
     15 C         138.0485  143.0595  163.8611 C.ar    1  UNL1        0.2250
     16 C         137.7280  142.8070  162.4177 C.ar    1  UNL1        0.0593
     17 C         137.8042  141.4146  161.8650 C.ar    1  UNL1        0.0254
     18 C         138.2008  140.2747  162.7557 C.ar    1  UNL1        0.0991
     19 N         138.2770  138.8824  162.2030 N.ar    1  UNL1       -0.2400
     20 C         138.6736  137.7425  163.0937 C.ar    1  UNL1        0.1282
     21 C         138.9941  137.9950  164.5372 C.ar    1  UNL1        0.1601
     22 F         139.3907  136.8552  165.4279 F       1  UNL1       -0.2027
     23 C         138.9179  139.3874  165.0899 C.ar    1  UNL1        0.0693
     24 C         138.5212  140.5273  164.1991 C.ar    1  UNL1        0.1037
     25 N         138.4451  141.9197  164.7518 N.ar    1  UNL1       -0.2103
     26 C         138.8062  144.8345  165.6004 C.3     1  UNL1        0.2542
     27 O         137.9723  144.4519  164.4138 O.3     1  UNL1       -0.4561
     28 N         145.5645  140.9792  163.8843 N.3     1  UNL1       -0.2926
     29 H         145.7882  140.0964  163.4249 H       1  UNL1        0.1236
     30 C         145.5890  142.0383  162.8224 C.3     1  UNL1        0.1152
     31 C         144.3588  142.3140  162.0096 C.ar    1  UNL1        0.0765
     32 C         143.9163  141.3347  160.9631 C.ar    1  UNL1        0.0193
     33 C         142.6862  141.6104  160.1503 C.ar    1  UNL1        0.0411
     34 C         141.8985  142.8654  160.3839 C.ar    1  UNL1        0.1708
     35 C         142.3410  143.8447  161.4303 C.ar    1  UNL1        0.1682
     36 N         143.5712  143.5690  162.2432 N.ar    1  UNL1       -0.2304
     37 N         141.5534  145.0997  161.6640 N.am    1  UNL1       -0.2639
     38 C         140.3233  145.3754  160.8511 C.2     1  UNL1        0.2718
     39 O         139.5357  146.6304  161.0848 O.2     1  UNL1       -0.2707
     40 C         139.8807  144.3961  159.8047 C.3     1  UNL1        0.2898
     41 O         140.6684  143.1411  159.5710 O.3     1  UNL1       -0.4628
     42 H         141.8439  145.7424  162.3508 H       1  UNL1        0.1565
@<TRIPOS>BOND
     1    26    27    1
     2    27    15    1
     3    15    16   ar
     4    16    17   ar
     5    17    18   ar
     6    18    19   ar
     7    19    20   ar
     8    20    21   ar
     9    21    22    1
    10    21    23   ar
    11     9    23    1
    12     9    10    1
    13    10    11    1
    14    11    12    2
    15    11    13    1
    16    14    13    1
    17    14     1    1
    18     1     2    1
    19     2     3    1
    20     3     4    1
    21     4    28    1
    22    28    30    1
    23    30    31    1
    24    31    32   ar
    25    32    33   ar
    26    33    34   ar
    27    34    35   ar
    28    35    36   ar
    29    35    37    1
    30    37    38   am
    31    38    39    2
    32    38    40    1
    33    40    41    1
    34     4     5    1
    35     5     6    1
    36     4     7    1
    37     7     8    1
    38    23    24   ar
    39    24    25   ar
    40    25    15   ar
    41    24    18   ar
    42    14     9    1
    43     6     1    1
    44     8     1    1
    45    36    31   ar
    46    41    34    1
    47    28    29    1
    48    37    42    1
@<TRIPOS>MOLECULE
*****
 42 48 0 0 0
SMALL
GASTEIGER

@<TRIPOS>ATOM
      1 C         138.2586  141.2484  164.2180 C.3     1  UNL1        0.1335
      2 C         138.8695  142.3855  164.9822 C.3     1  UNL1        0.0324
      3 C         138.8907  143.7627  164.3883 C.3     1  UNL1        0.0195
      4 C         138.3011  144.0029  163.0301 C.3     1  UNL1        0.0700
      5 C         137.6902  142.8659  162.2659 C.3     1  UNL1        0.0195
      6 C         137.6690  141.4886  162.8599 C.3     1  UNL1        0.0324
      7 C         138.2661  143.2308  163.3144 C.3     1  UNL1        0.1563
      8 O         138.2469  141.9856  163.8514 O.3     1  UNL1       -0.3535
      9 C         138.8174  138.6346  164.1921 C.3     1  UNL1        0.2404
     10 O         138.5709  137.4880  165.1271 O.3     1  UNL1       -0.4132
     11 C         137.8385  138.0159  166.3250 C.2     1  UNL1        0.5122
     12 O         137.3909  137.2120  167.5097 O.2     1  UNL1       -0.2028
     13 O         137.6324  139.4889  166.1303 O.3     1  UNL1       -0.4152
     14 C         138.2374  139.8712  164.8120 C.3     1  UNL1        0.2408
     15 C         143.3099  138.8263  164.0175 C.ar    1  UNL1        0.2250
     16 C         144.0130  138.7497  162.6947 C.ar    1  UNL1        0.0593
     17 C         143.2186  138.6093  161.4301 C.ar    1  UNL1        0.0254
     18 C         141.7211  138.5454  161.4883 C.ar    1  UNL1        0.0991
     19 N         140.9267  138.4050  160.2237 N.ar    1  UNL1       -0.2400
     20 C         139.4292  138.3411  160.2819 C.ar    1  UNL1        0.1282
     21 C         138.7261  138.4176  161.6047 C.ar    1  UNL1        0.1601
     22 F         137.2286  138.3537  161.6629 F       1  UNL1       -0.2027
     23 C         139.5205  138.5581  162.8693 C.ar    1  UNL1        0.0693
     24 C         141.0180  138.6220  162.8111 C.ar    1  UNL1        0.1037
     25 N         141.8124  138.7624  164.0756 N.ar    1  UNL1       -0.2103
     26 C         143.5782  138.3960  166.5656 C.3     1  UNL1        0.2542
     27 O         144.1043  138.9667  165.2821 O.3     1  UNL1       -0.4561
     28 N         138.3223  145.3802  162.4361 N.3     1  UNL1       -0.2926
     29 H         137.9258  146.0084  163.1350 H       1  UNL1        0.1236
     30 C         139.6215  145.9870  161.9958 C.3     1  UNL1        0.1152
     31 C         140.7594  145.1026  161.5797 C.ar    1  UNL1        0.0765
     32 C         140.9293  144.7278  160.1372 C.ar    1  UNL1        0.0193
     33 C         142.0672  143.8435  159.7211 C.ar    1  UNL1        0.0411
     34 C         143.0352  143.3340  160.7475 C.ar    1  UNL1        0.1708
     35 C         142.8653  143.7088  162.1898 C.ar    1  UNL1        0.1682
     36 N         141.7274  144.5931  162.6060 N.ar    1  UNL1       -0.2304
     37 N         143.8333  143.1993  163.2162 N.am    1  UNL1       -0.2639
     38 C         144.9712  142.3150  162.8001 C.2     1  UNL1        0.2718
     39 O         145.9391  141.8054  163.8264 O.2     1  UNL1       -0.2707
     40 C         145.1411  141.9402  161.3576 C.3     1  UNL1        0.2898
     41 O         144.1731  142.4497  160.3313 O.3     1  UNL1       -0.4628
     42 H         143.7217  143.4453  164.1629 H       1  UNL1        0.1565
@<TRIPOS>BOND
     1    26    27    1
     2    27    15    1
     3    15    16   ar
     4    16    17   ar
     5    17    18   ar
     6    18    19   ar
     7    19    20   ar
     8    20    21   ar
     9    21    22    1
    10    21    23   ar
    11     9    23    1
    12     9    10    1
    13    10    11    1
    14    11    12    2
    15    11    13    1
    16    14    13    1
    17    14     1    1
    18     1     2    1
    19     2     3    1
    20     3     4    1
    21     4    28    1
    22    28    30    1
    23    30    31    1
    24    31    32   ar
    25    32    33   ar
    26    33    34   ar
    27    34    35   ar
    28    35    36   ar
    29    35    37    1
    30    37    38   am
    31    38    39    2
    32    38    40    1
    33    40    41    1
    34     4     5    1
    35     5     6    1
    36     4     7    1
    37     7     8    1
    38    23    24   ar
    39    24    25   ar
    40    25    15   ar
    41    24    18   ar
    42    14     9    1
    43     6     1    1
    44     8     1    1
    45    36    31   ar
    46    41    34    1
    47    28    29    1
    48    37    42    1
@<TRIPOS>MOLECULE
*****
 42 48 0 0 0
SMALL
GASTEIGER

@<TRIPOS>ATOM
      1 C         141.6523  140.6764  166.4802 C.3     1  UNL1        0.1335
      2 C         141.9058  142.1369  166.2504 C.3     1  UNL1        0.0324
      3 C         143.1008  142.5749  165.4568 C.3     1  UNL1        0.0195
      4 C         144.0425  141.5524  164.8929 C.3     1  UNL1        0.0700
      5 C         143.7891  140.0920  165.1227 C.3     1  UNL1        0.0195
      6 C         142.5939  139.6539  165.9164 C.3     1  UNL1        0.0324
      7 C         143.4010  141.2642  165.3213 C.3     1  UNL1        0.1563
      8 O         142.3204  140.8682  166.0389 O.3     1  UNL1       -0.3535
      9 C         139.2015  139.6359  166.7168 C.3     1  UNL1        0.2404
     10 O         138.2762  139.3511  167.8625 O.3     1  UNL1       -0.4132
     11 C         138.9600  139.7776  169.1276 C.2     1  UNL1        0.5122
     12 O         138.3950  139.6739  170.5133 O.2     1  UNL1       -0.2028
     13 O         140.3080  140.3260  168.7638 O.3     1  UNL1       -0.4152
     14 C         140.4572  140.2384  167.2738 C.3     1  UNL1        0.2408
     15 C         137.9715  143.0035  163.9971 C.ar    1  UNL1        0.2250
     16 C         137.6905  142.7332  162.5487 C.ar    1  UNL1        0.0593
     17 C         137.8194  141.3405  162.0068 C.ar    1  UNL1        0.0254
     18 C         138.2293  140.2180  162.9134 C.ar    1  UNL1        0.0991
     19 N         138.3583  138.8252  162.3715 N.ar    1  UNL1       -0.2400
     20 C         138.7682  137.7027  163.2780 C.ar    1  UNL1        0.1282
     21 C         139.0493  137.9729  164.7265 C.ar    1  UNL1        0.1601
     22 F         139.4593  136.8504  165.6331 F       1  UNL1       -0.2027
     23 C         138.9204  139.3657  165.2684 C.ar    1  UNL1        0.0693
     24 C         138.5104  140.4882  164.3618 C.ar    1  UNL1        0.1037
     25 N         138.3815  141.8810  164.9036 N.ar    1  UNL1       -0.2103
     26 C         138.8050  144.8885  165.5788 C.3     1  UNL1        0.2542
     27 O         137.8426  144.3962  164.5390 O.3     1  UNL1       -0.4561
     28 N         145.2377  141.9905  164.0993 N.3     1  UNL1       -0.2926
     29 H         145.8772  141.1966  164.0676 H       1  UNL1        0.1236
     30 C         145.0668  142.4655  162.6868 C.3     1  UNL1        0.1152
     31 C         144.0097  141.8572  161.8137 C.ar    1  UNL1        0.0765
     32 C         142.6629  142.5081  161.7023 C.ar    1  UNL1        0.0193
     33 C         141.6058  141.8998  160.8291 C.ar    1  UNL1        0.0411
     34 C         141.8955  140.6405  160.0674 C.ar    1  UNL1        0.1708
     35 C         143.2422  139.9896  160.1787 C.ar    1  UNL1        0.1682
     36 N         144.2994  140.5979  161.0519 N.ar    1  UNL1       -0.2304
     37 N         143.5319  138.7303  159.4170 N.am    1  UNL1       -0.2639
     38 C         142.4748  138.1219  158.5438 C.2     1  UNL1        0.2718
     39 O         142.7644  136.8627  157.7821 O.2     1  UNL1       -0.2707
     40 C         141.1279  138.7729  158.4324 C.3     1  UNL1        0.2898
     41 O         140.8382  140.0322  159.1942 O.3     1  UNL1       -0.4628
     42 H         144.4158  138.3031  159.4901 H       1  UNL1        0.1565
@<TRIPOS>BOND
     1    26    27    1
     2    27    15    1
     3    15    16   ar
     4    16    17   ar
     5    17    18   ar
     6    18    19   ar
     7    19    20   ar
     8    20    21   ar
     9    21    22    1
    10    21    23   ar
    11     9    23    1
    12     9    10    1
    13    10    11    1
    14    11    12    2
    15    11    13    1
    16    14    13    1
    17    14     1    1
    18     1     2    1
    19     2     3    1
    20     3     4    1
    21     4    28    1
    22    28    30    1
    23    30    31    1
    24    31    32   ar
    25    32    33   ar
    26    33    34   ar
    27    34    35   ar
    28    35    36   ar
    29    35    37    1
    30    37    38   am
    31    38    39    2
    32    38    40    1
    33    40    41    1
    34     4     5    1
    35     5     6    1
    36     4     7    1
    37     7     8    1
    38    23    24   ar
    39    24    25   ar
    40    25    15   ar
    41    24    18   ar
    42    14     9    1
    43     6     1    1
    44     8     1    1
    45    36    31   ar
    46    41    34    1
    47    28    29    1
    48    37    42    1
@<TRIPOS>MOLECULE
*****
 42 48 0 0 0
SMALL
GASTEIGER

@<TRIPOS>ATOM
      1 C         140.0946  141.9216  166.5451 C.3     1  UNL1        0.1335
      2 C         139.3019  140.6483  166.5192 C.3     1  UNL1        0.0324
      3 C         138.2599  140.4349  165.4616 C.3     1  UNL1        0.0195
      4 C         138.0104  141.4949  164.4298 C.3     1  UNL1        0.0700
      5 C         138.8030  142.7680  164.4557 C.3     1  UNL1        0.0195
      6 C         139.8451  142.9814  165.5133 C.3     1  UNL1        0.0324
      7 C         138.5919  141.6570  164.9898 C.3     1  UNL1        0.1563
      8 O         139.5342  141.8499  165.9461 O.3     1  UNL1       -0.3535
      9 C         142.5306  141.5809  167.5914 C.3     1  UNL1        0.2404
     10 O         143.2232  142.0433  168.8390 O.3     1  UNL1       -0.4132
     11 C         142.2573  142.8831  169.6213 C.2     1  UNL1        0.5122
     12 O         142.5327  143.5493  170.9367 O.2     1  UNL1       -0.2028
     13 O         140.9677  142.9397  168.8572 O.3     1  UNL1       -0.4152
     14 C         141.1367  142.1349  167.6027 C.3     1  UNL1        0.2408
     15 C         143.8169  143.4046  163.6838 C.ar    1  UNL1        0.2250
     16 C         144.4135  142.5400  162.6131 C.ar    1  UNL1        0.0593
     17 C         144.5813  141.0676  162.8448 C.ar    1  UNL1        0.0254
     18 C         144.1525  140.4597  164.1473 C.ar    1  UNL1        0.0991
     19 N         144.3203  138.9872  164.3791 N.ar    1  UNL1       -0.2400
     20 C         143.8916  138.3793  165.6816 C.ar    1  UNL1        0.1282
     21 C         143.2950  139.2439  166.7524 C.ar    1  UNL1        0.1601
     22 F         142.8662  138.6360  168.0549 F       1  UNL1       -0.2027
     23 C         143.1272  140.7163  166.5207 C.ar    1  UNL1        0.0693
     24 C         143.5560  141.3242  165.2181 C.ar    1  UNL1        0.1037
     25 N         143.3882  142.7967  164.9863 N.ar    1  UNL1       -0.2103
     26 C         142.2914  145.5043  163.5663 C.3     1  UNL1        0.2542
     27 O         143.6491  144.8770  163.4521 O.3     1  UNL1       -0.4561
     28 N         136.9683  141.2815  163.3722 N.3     1  UNL1       -0.2926
     29 H         136.5044  142.1788  163.2305 H       1  UNL1        0.1236
     30 C         137.3680  140.7816  162.0156 C.3     1  UNL1        0.1152
     31 C         138.5733  139.9014  161.8658 C.ar    1  UNL1        0.0765
     32 C         138.6145  138.5643  162.5444 C.ar    1  UNL1        0.0193
     33 C         139.8198  137.6841  162.3945 C.ar    1  UNL1        0.0411
     34 C         140.9839  138.1410  161.5661 C.ar    1  UNL1        0.1708
     35 C         140.9426  139.4780  160.8875 C.ar    1  UNL1        0.1682
     36 N         139.7373  140.3583  161.0373 N.ar    1  UNL1       -0.2304
     37 N         142.1066  139.9349  160.0591 N.am    1  UNL1       -0.2639
     38 C         143.3119  139.0546  159.9093 C.2     1  UNL1        0.2718
     39 O         144.4759  139.5115  159.0808 O.2     1  UNL1       -0.2707
     40 C         143.3532  137.7176  160.5879 C.3     1  UNL1        0.2898
     41 O         142.1892  137.2607  161.4163 O.3     1  UNL1       -0.4628
     42 H         142.0795  140.8124  159.6137 H       1  UNL1        0.1565
@<TRIPOS>BOND
     1    26    27    1
     2    27    15    1
     3    15    16   ar
     4    16    17   ar
     5    17    18   ar
     6    18    19   ar
     7    19    20   ar
     8    20    21   ar
     9    21    22    1
    10    21    23   ar
    11     9    23    1
    12     9    10    1
    13    10    11    1
    14    11    12    2
    15    11    13    1
    16    14    13    1
    17    14     1    1
    18     1     2    1
    19     2     3    1
    20     3     4    1
    21     4    28    1
    22    28    30    1
    23    30    31    1
    24    31    32   ar
    25    32    33   ar
    26    33    34   ar
    27    34    35   ar
    28    35    36   ar
    29    35    37    1
    30    37    38   am
    31    38    39    2
    32    38    40    1
    33    40    41    1
    34     4     5    1
    35     5     6    1
    36     4     7    1
    37     7     8    1
    38    23    24   ar
    39    24    25   ar
    40    25    15   ar
    41    24    18   ar
    42    14     9    1
    43     6     1    1
    44     8     1    1
    45    36    31   ar
    46    41    34    1
    47    28    29    1
    48    37    42    1
@<TRIPOS>MOLECULE
*****
 42 48 0 0 0
SMALL
GASTEIGER

@<TRIPOS>ATOM
      1 C         138.7876  141.3248  164.6860 C.3     1  UNL1        0.1335
      2 C         140.1416  141.9336  164.9009 C.3     1  UNL1        0.0324
      3 C         140.4149  143.3354  164.4425 C.3     1  UNL1        0.0195
      4 C         139.3342  144.1285  163.7693 C.3     1  UNL1        0.0700
      5 C         137.9803  143.5197  163.5544 C.3     1  UNL1        0.0195
      6 C         137.7070  142.1178  164.0128 C.3     1  UNL1        0.0324
      7 C         139.1372  143.3639  164.0032 C.3     1  UNL1        0.1563
      8 O         138.8901  142.0964  164.4176 O.3     1  UNL1       -0.3535
      9 C         138.8501  138.6685  164.3935 C.3     1  UNL1        0.2404
     10 O         138.4006  137.4997  165.2192 O.3     1  UNL1       -0.4132
     11 C         137.7871  138.0317  166.4803 C.2     1  UNL1        0.5122
     12 O         137.2053  137.2102  167.5925 O.2     1  UNL1       -0.2028
     13 O         137.8574  139.5294  166.4341 O.3     1  UNL1       -0.4152
     14 C         138.5144  139.9229  165.1444 C.3     1  UNL1        0.2408
     15 C         143.3358  138.8736  164.0999 C.ar    1  UNL1        0.2250
     16 C         144.0037  138.8009  162.7589 C.ar    1  UNL1        0.0593
     17 C         143.1764  138.6597  161.5156 C.ar    1  UNL1        0.0254
     18 C         141.6812  138.5914  161.6135 C.ar    1  UNL1        0.0991
     19 N         140.8539  138.4502  160.3702 N.ar    1  UNL1       -0.2400
     20 C         139.3587  138.3819  160.4680 C.ar    1  UNL1        0.1282
     21 C         138.6907  138.4546  161.8092 C.ar    1  UNL1        0.1601
     22 F         137.1955  138.3863  161.9070 F       1  UNL1       -0.2027
     23 C         139.5180  138.5958  163.0524 C.ar    1  UNL1        0.0693
     24 C         141.0133  138.6641  162.9545 C.ar    1  UNL1        0.1037
     25 N         141.8406  138.8053  164.1978 N.ar    1  UNL1       -0.2103
     26 C         143.9473  138.0816  166.4976 C.3     1  UNL1        0.2542
     27 O         144.1631  139.0148  165.3432 O.3     1  UNL1       -0.4561
     28 N         139.6076  145.5304  163.3109 N.3     1  UNL1       -0.2926
     29 H         140.3284  145.9063  163.9269 H       1  UNL1        0.1236
     30 C         140.0641  145.7841  161.9048 C.3     1  UNL1        0.1152
     31 C         140.3315  144.6309  160.9836 C.ar    1  UNL1        0.0765
     32 C         141.7352  144.1424  160.7813 C.ar    1  UNL1        0.0193
     33 C         142.0026  142.9892  159.8600 C.ar    1  UNL1        0.0411
     34 C         140.8663  142.3246  159.1411 C.ar    1  UNL1        0.1708
     35 C         139.4626  142.8130  159.3433 C.ar    1  UNL1        0.1682
     36 N         139.1952  143.9662  160.2646 N.ar    1  UNL1       -0.2304
     37 N         138.3263  142.1483  158.6244 N.am    1  UNL1       -0.2639
     38 C         138.5937  140.9951  157.7032 C.2     1  UNL1        0.2718
     39 O         137.4573  140.3305  156.9842 O.2     1  UNL1       -0.2707
     40 C         139.9974  140.5067  157.5009 C.3     1  UNL1        0.2898
     41 O         141.1338  141.1713  158.2198 O.3     1  UNL1       -0.4628
     42 H         137.4050  142.4689  158.7572 H       1  UNL1        0.1565
@<TRIPOS>BOND
     1    26    27    1
     2    27    15    1
     3    15    16   ar
     4    16    17   ar
     5    17    18   ar
     6    18    19   ar
     7    19    20   ar
     8    20    21   ar
     9    21    22    1
    10    21    23   ar
    11     9    23    1
    12     9    10    1
    13    10    11    1
    14    11    12    2
    15    11    13    1
    16    14    13    1
    17    14     1    1
    18     1     2    1
    19     2     3    1
    20     3     4    1
    21     4    28    1
    22    28    30    1
    23    30    31    1
    24    31    32   ar
    25    32    33   ar
    26    33    34   ar
    27    34    35   ar
    28    35    36   ar
    29    35    37    1
    30    37    38   am
    31    38    39    2
    32    38    40    1
    33    40    41    1
    34     4     5    1
    35     5     6    1
    36     4     7    1
    37     7     8    1
    38    23    24   ar
    39    24    25   ar
    40    25    15   ar
    41    24    18   ar
    42    14     9    1
    43     6     1    1
    44     8     1    1
    45    36    31   ar
    46    41    34    1
    47    28    29    1
    48    37    42    1
@<TRIPOS>MOLECULE
*****
 42 48 0 0 0
SMALL
GASTEIGER

@<TRIPOS>ATOM
      1 C         140.7697  142.9690  165.7713 C.3     1  UNL1        0.1335
      2 C         142.0105  143.3238  165.0066 C.3     1  UNL1        0.0324
      3 C         141.9523  144.3555  163.9195 C.3     1  UNL1        0.0195
      4 C         140.6531  145.0327  163.5970 C.3     1  UNL1        0.0700
      5 C         139.4125  144.6780  164.3616 C.3     1  UNL1        0.0195
      6 C         139.4707  143.6461  165.4488 C.3     1  UNL1        0.0324
      7 C         140.6358  144.4736  164.2013 C.3     1  UNL1        0.1563
      8 O         140.6885  143.5406  165.1843 O.3     1  UNL1       -0.3535
      9 C         140.6324  140.4603  166.6838 C.3     1  UNL1        0.2404
     10 O         140.7757  139.8115  168.0286 O.3     1  UNL1       -0.4132
     11 C         141.0598  140.8874  169.0344 C.2     1  UNL1        0.5122
     12 O         141.2739  140.6850  170.5052 O.2     1  UNL1       -0.2028
     13 O         141.0921  142.2012  168.3113 O.3     1  UNL1       -0.4152
     14 C         140.8280  141.9372  166.8585 C.3     1  UNL1        0.2408
     15 C         143.9612  139.6721  163.7601 C.ar    1  UNL1        0.2250
     16 C         143.6730  138.9677  162.4676 C.ar    1  UNL1        0.0593
     17 C         142.2752  138.5260  162.1496 C.ar    1  UNL1        0.0254
     18 C         141.1656  138.7888  163.1241 C.ar    1  UNL1        0.0991
     19 N         139.7678  138.3471  162.8061 N.ar    1  UNL1       -0.2400
     20 C         138.6583  138.6098  163.7806 C.ar    1  UNL1        0.1282
     21 C         138.9464  139.3143  165.0732 C.ar    1  UNL1        0.1601
     22 F         137.8369  139.5770  166.0478 F       1  UNL1       -0.2027
     23 C         140.3442  139.7559  165.3912 C.ar    1  UNL1        0.0693
     24 C         141.4538  139.4932  164.4166 C.ar    1  UNL1        0.1037
     25 N         142.8516  139.9348  164.7346 N.ar    1  UNL1       -0.2103
     26 C         145.7861  141.5212  163.7839 C.3     1  UNL1        0.2542
     27 O         145.3590  140.1137  164.0781 O.3     1  UNL1       -0.4561
     28 N         140.5949  146.0645  162.5097 N.3     1  UNL1       -0.2926
     29 H         141.5177  146.4967  162.4642 H       1  UNL1        0.1236
     30 C         140.2366  145.6601  161.1105 C.3     1  UNL1        0.1152
     31 C         140.8663  144.4450  160.4964 C.ar    1  UNL1        0.0765
     32 C         140.1747  143.1168  160.5832 C.ar    1  UNL1        0.0193
     33 C         140.8044  141.9018  159.9692 C.ar    1  UNL1        0.0411
     34 C         142.1258  142.0149  159.2683 C.ar    1  UNL1        0.1708
     35 C         142.8174  143.3430  159.1815 C.ar    1  UNL1        0.1682
     36 N         142.1877  144.5582  159.7956 N.ar    1  UNL1       -0.2304
     37 N         144.1387  143.4562  158.4807 N.am    1  UNL1       -0.2639
     38 C         144.7685  142.2411  157.8666 C.2     1  UNL1        0.2718
     39 O         146.0898  142.3543  157.1658 O.2     1  UNL1       -0.2707
     40 C         144.0768  140.9129  157.9534 C.3     1  UNL1        0.2898
     41 O         142.7555  140.7998  158.6543 O.3     1  UNL1       -0.4628
     42 H         144.5927  144.3279  158.4237 H       1  UNL1        0.1565
@<TRIPOS>BOND
     1    26    27    1
     2    27    15    1
     3    15    16   ar
     4    16    17   ar
     5    17    18   ar
     6    18    19   ar
     7    19    20   ar
     8    20    21   ar
     9    21    22    1
    10    21    23   ar
    11     9    23    1
    12     9    10    1
    13    10    11    1
    14    11    12    2
    15    11    13    1
    16    14    13    1
    17    14     1    1
    18     1     2    1
    19     2     3    1
    20     3     4    1
    21     4    28    1
    22    28    30    1
    23    30    31    1
    24    31    32   ar
    25    32    33   ar
    26    33    34   ar
    27    34    35   ar
    28    35    36   ar
    29    35    37    1
    30    37    38   am
    31    38    39    2
    32    38    40    1
    33    40    41    1
    34     4     5    1
    35     5     6    1
    36     4     7    1
    37     7     8    1
    38    23    24   ar
    39    24    25   ar
    40    25    15   ar
    41    24    18   ar
    42    14     9    1
    43     6     1    1
    44     8     1    1
    45    36    31   ar
    46    41    34    1
    47    28    29    1
    48    37    42    1
@<TRIPOS>MOLECULE
*****
 42 48 0 0 0
SMALL
GASTEIGER

@<TRIPOS>ATOM
      1 C         142.0704  142.6362  165.7925 C.3     1  UNL1        0.1335
      2 C         140.6363  143.0565  165.6635 C.3     1  UNL1        0.0324
      3 C         140.2486  144.1031  164.6615 C.3     1  UNL1        0.0195
      4 C         141.2952  144.7296  163.7883 C.3     1  UNL1        0.0700
      5 C         142.7292  144.3094  163.9172 C.3     1  UNL1        0.0195
      6 C         143.1169  143.2627  164.9194 C.3     1  UNL1        0.0324
      7 C         141.5557  144.1601  164.3229 C.3     1  UNL1        0.1563
      8 O         141.9062  143.2137  165.2290 O.3     1  UNL1       -0.3535
      9 C         142.7526  140.1493  166.4961 C.3     1  UNL1        0.2404
     10 O         143.0958  139.4690  167.7881 O.3     1  UNL1       -0.4132
     11 C         143.0134  140.4887  168.8851 C.2     1  UNL1        0.5122
     12 O         143.2785  140.2413  170.3406 O.2     1  UNL1       -0.2028
     13 O         142.6192  141.7993  168.2710 O.3     1  UNL1       -0.4152
     14 C         142.4581  141.5896  166.7945 C.3     1  UNL1        0.2408
     15 C         138.9205  138.3389  164.9838 C.ar    1  UNL1        0.2250
     16 C         138.8791  137.6925  163.6309 C.ar    1  UNL1        0.0593
     17 C         140.1150  137.6496  162.7821 C.ar    1  UNL1        0.0254
     18 C         141.3924  138.2531  163.2861 C.ar    1  UNL1        0.0991
     19 N         142.6284  138.2102  162.4373 N.ar    1  UNL1       -0.2400
     20 C         143.9057  138.8136  162.9413 C.ar    1  UNL1        0.1282
     21 C         143.9472  139.4601  164.2943 C.ar    1  UNL1        0.1601
     22 F         145.2245  140.0635  164.7984 F       1  UNL1       -0.2027
     23 C         142.7112  139.5030  165.1432 C.ar    1  UNL1        0.0693
     24 C         141.4338  138.8994  164.6390 C.ar    1  UNL1        0.1037
     25 N         140.1978  138.9423  165.4879 N.ar    1  UNL1       -0.2103
     26 C         137.7834  138.7501  167.2834 C.3     1  UNL1        0.2542
     27 O         137.6845  138.3818  165.8327 O.3     1  UNL1       -0.4561
     28 N         140.9074  145.7763  162.7862 N.3     1  UNL1       -0.2926
     29 H         141.6459  146.4799  162.7945 H       1  UNL1        0.1236
     30 C         140.6875  145.3964  161.3519 C.3     1  UNL1        0.1152
     31 C         140.4757  143.9585  160.9810 C.ar    1  UNL1        0.0765
     32 C         139.1294  143.3251  161.1720 C.ar    1  UNL1        0.0193
     33 C         138.9176  141.8873  160.8010 C.ar    1  UNL1        0.0411
     34 C         140.0520  141.0828  160.2390 C.ar    1  UNL1        0.1708
     35 C         141.3982  141.7161  160.0480 C.ar    1  UNL1        0.1682
     36 N         141.6101  143.1540  160.4190 N.ar    1  UNL1       -0.2304
     37 N         142.5326  140.9116  159.4860 N.am    1  UNL1       -0.2639
     38 C         142.3208  139.4737  159.1151 C.2     1  UNL1        0.2718
     39 O         143.4552  138.6692  158.5531 O.2     1  UNL1       -0.2707
     40 C         140.9746  138.8403  159.3061 C.3     1  UNL1        0.2898
     41 O         139.8401  139.6448  159.8681 O.3     1  UNL1       -0.4628
     42 H         143.4162  141.3273  159.3606 H       1  UNL1        0.1565
@<TRIPOS>BOND
     1    26    27    1
     2    27    15    1
     3    15    16   ar
     4    16    17   ar
     5    17    18   ar
     6    18    19   ar
     7    19    20   ar
     8    20    21   ar
     9    21    22    1
    10    21    23   ar
    11     9    23    1
    12     9    10    1
    13    10    11    1
    14    11    12    2
    15    11    13    1
    16    14    13    1
    17    14     1    1
    18     1     2    1
    19     2     3    1
    20     3     4    1
    21     4    28    1
    22    28    30    1
    23    30    31    1
    24    31    32   ar
    25    32    33   ar
    26    33    34   ar
    27    34    35   ar
    28    35    36   ar
    29    35    37    1
    30    37    38   am
    31    38    39    2
    32    38    40    1
    33    40    41    1
    34     4     5    1
    35     5     6    1
    36     4     7    1
    37     7     8    1
    38    23    24   ar
    39    24    25   ar
    40    25    15   ar
    41    24    18   ar
    42    14     9    1
    43     6     1    1
    44     8     1    1
    45    36    31   ar
    46    41    34    1
    47    28    29    1
    48    37    42    1
@<TRIPOS>MOLECULE
*****
 42 48 0 0 0
SMALL
GASTEIGER

@<TRIPOS>ATOM
      1 C         139.8569  141.9169  166.2361 C.3     1  UNL1        0.1335
      2 C         139.2351  140.5601  166.0867 C.3     1  UNL1        0.0324
      3 C         138.2673  140.2972  164.9714 C.3     1  UNL1        0.0195
      4 C         137.9212  141.3914  164.0052 C.3     1  UNL1        0.0700
      5 C         138.5430  142.7481  164.1546 C.3     1  UNL1        0.0195
      6 C         139.5109  143.0110  165.2700 C.3     1  UNL1        0.0324
      7 C         138.4569  141.5829  164.6006 C.3     1  UNL1        0.1563
      8 O         139.3320  141.8205  165.6091 O.3     1  UNL1       -0.3535
      9 C         142.2301  141.6625  167.4396 C.3     1  UNL1        0.2404
     10 O         142.8311  142.1689  168.7172 O.3     1  UNL1       -0.4132
     11 C         141.7973  142.9991  169.4187 C.2     1  UNL1        0.5122
     12 O         141.9727  143.6996  170.7334 O.2     1  UNL1       -0.2028
     13 O         140.5573  143.0057  168.5746 O.3     1  UNL1       -0.4152
     14 C         140.8248  142.1797  167.3515 C.3     1  UNL1        0.2408
     15 C         143.5591  143.4004  163.5072 C.ar    1  UNL1        0.2250
     16 C         144.2432  142.5297  162.4954 C.ar    1  UNL1        0.0593
     17 C         144.4843  141.0797  162.7944 C.ar    1  UNL1        0.0254
     18 C         144.0414  140.5004  164.1051 C.ar    1  UNL1        0.0991
     19 N         144.2825  139.0504  164.4041 N.ar    1  UNL1       -0.2400
     20 C         143.8396  138.4711  165.7149 C.ar    1  UNL1        0.1282
     21 C         143.1554  139.3418  166.7268 C.ar    1  UNL1        0.1601
     22 F         142.7124  138.7625  168.0375 F       1  UNL1       -0.2027
     23 C         142.9142  140.7918  166.4278 C.ar    1  UNL1        0.0693
     24 C         143.3572  141.3711  165.1170 C.ar    1  UNL1        0.1037
     25 N         143.1161  142.8211  164.8180 N.ar    1  UNL1       -0.2103
     26 C         142.0008  145.4787  163.5551 C.3     1  UNL1        0.2542
     27 O         143.3179  144.8503  163.2083 O.3     1  UNL1       -0.4561
     28 N         136.9533  141.1285  162.8898 N.3     1  UNL1       -0.2926
     29 H         136.5314  142.0253  162.6486 H       1  UNL1        0.1236
     30 C         137.4349  140.5177  161.6073 C.3     1  UNL1        0.1152
     31 C         138.7759  140.8975  161.0528 C.ar    1  UNL1        0.0765
     32 C         139.8915  139.8949  161.0350 C.ar    1  UNL1        0.0193
     33 C         141.2325  140.2747  160.4806 C.ar    1  UNL1        0.0411
     34 C         141.4579  141.6572  159.9439 C.ar    1  UNL1        0.1708
     35 C         140.3424  142.6597  159.9617 C.ar    1  UNL1        0.1682
     36 N         139.0013  142.2799  160.5162 N.ar    1  UNL1       -0.2304
     37 N         140.5679  144.0422  159.4251 N.am    1  UNL1       -0.2639
     38 C         141.9088  144.4220  158.8706 C.2     1  UNL1        0.2718
     39 O         142.1343  145.8045  158.3339 O.2     1  UNL1       -0.2707
     40 C         143.0244  143.4194  158.8528 C.3     1  UNL1        0.2898
     41 O         142.7990  142.0370  159.3895 O.3     1  UNL1       -0.4628
     42 H         139.8357  144.7002  159.4367 H       1  UNL1        0.1565
@<TRIPOS>BOND
     1    26    27    1
     2    27    15    1
     3    15    16   ar
     4    16    17   ar
     5    17    18   ar
     6    18    19   ar
     7    19    20   ar
     8    20    21   ar
     9    21    22    1
    10    21    23   ar
    11     9    23    1
    12     9    10    1
    13    10    11    1
    14    11    12    2
    15    11    13    1
    16    14    13    1
    17    14     1    1
    18     1     2    1
    19     2     3    1
    20     3     4    1
    21     4    28    1
    22    28    30    1
    23    30    31    1
    24    31    32   ar
    25    32    33   ar
    26    33    34   ar
    27    34    35   ar
    28    35    36   ar
    29    35    37    1
    30    37    38   am
    31    38    39    2
    32    38    40    1
    33    40    41    1
    34     4     5    1
    35     5     6    1
    36     4     7    1
    37     7     8    1
    38    23    24   ar
    39    24    25   ar
    40    25    15   ar
    41    24    18   ar
    42    14     9    1
    43     6     1    1
    44     8     1    1
    45    36    31   ar
    46    41    34    1
    47    28    29    1
    48    37    42    1
@<TRIPOS>MOLECULE
*****
 42 48 0 0 0
SMALL
GASTEIGER

@<TRIPOS>ATOM
      1 C         140.9909  138.3010  162.1389 C.3     1  UNL1        0.1335
      2 C         139.5004  138.4593  162.0812 C.3     1  UNL1        0.0324
      3 C         138.6601  138.0861  163.2663 C.3     1  UNL1        0.0195
      4 C         139.3104  137.5545  164.5092 C.3     1  UNL1        0.0700
      5 C         140.8008  137.3962  164.5669 C.3     1  UNL1        0.0195
      6 C         141.6412  137.7694  163.3817 C.3     1  UNL1        0.0324
      7 C         139.8123  137.7456  163.8850 C.3     1  UNL1        0.1563
      8 O         140.5721  138.0831  162.8135 O.3     1  UNL1       -0.3535
      9 C         142.6359  139.9313  160.8043 C.3     1  UNL1        0.2404
     10 O         143.3163  139.8900  159.4682 O.3     1  UNL1       -0.4132
     11 C         142.9322  138.6074  158.7918 C.2     1  UNL1        0.5122
     12 O         143.3862  138.1555  157.4355 O.2     1  UNL1       -0.2028
     13 O         142.0143  137.8560  159.7100 O.3     1  UNL1       -0.4152
     14 C         141.8312  138.6743  160.9538 C.3     1  UNL1        0.2408
     15 C         139.3960  143.0417  161.0836 C.ar    1  UNL1        0.2250
     16 C         139.5016  144.1462  162.0930 C.ar    1  UNL1        0.0593
     17 C         140.6873  144.2139  163.0093 C.ar    1  UNL1        0.0254
     18 C         141.7673  143.1771  162.9162 C.ar    1  UNL1        0.0991
     19 N         142.9529  143.2448  163.8325 N.ar    1  UNL1       -0.2400
     20 C         144.0329  142.2080  163.7395 C.ar    1  UNL1        0.1282
     21 C         143.9273  141.1035  162.7300 C.ar    1  UNL1        0.1601
     22 F         145.0072  140.0667  162.6369 F       1  UNL1       -0.2027
     23 C         142.7416  141.0358  161.8137 C.ar    1  UNL1        0.0693
     24 C         141.6616  142.0727  161.9068 C.ar    1  UNL1        0.1037
     25 N         140.4759  142.0050  160.9905 N.ar    1  UNL1       -0.2103
     26 C         138.3955  142.5947  158.7280 C.3     1  UNL1        0.2542
     27 O         138.2103  142.9741  160.1673 O.3     1  UNL1       -0.4561
     28 N         138.4700  137.1812  165.6944 N.3     1  UNL1       -0.2926
     29 H         139.0606  136.6215  166.3095 H       1  UNL1        0.1236
     30 C         137.8530  138.2527  166.5435 C.3     1  UNL1        0.1152
     31 C         138.6703  139.4367  166.9682 C.ar    1  UNL1        0.0765
     32 C         139.0421  140.4895  165.9665 C.ar    1  UNL1        0.0193
     33 C         139.8594  141.6735  166.3911 C.ar    1  UNL1        0.0411
     34 C         140.3049  141.8045  167.8174 C.ar    1  UNL1        0.1708
     35 C         139.9332  140.7518  168.8190 C.ar    1  UNL1        0.1682
     36 N         139.1159  139.5677  168.3944 N.ar    1  UNL1       -0.2304
     37 N         140.3788  140.8828  170.2453 N.am    1  UNL1       -0.2639
     38 C         141.1961  142.0668  170.6699 C.2     1  UNL1        0.2718
     39 O         141.6416  142.1978  172.0962 O.2     1  UNL1       -0.2707
     40 C         141.5678  143.1196  169.6682 C.3     1  UNL1        0.2898
     41 O         141.1223  142.9885  168.2420 O.3     1  UNL1       -0.4628
     42 H         140.1348  140.1918  170.9027 H       1  UNL1        0.1565
@<TRIPOS>BOND
     1    26    27    1
     2    27    15    1
     3    15    16   ar
     4    16    17   ar
     5    17    18   ar
     6    18    19   ar
     7    19    20   ar
     8    20    21   ar
     9    21    22    1
    10    21    23   ar
    11     9    23    1
    12     9    10    1
    13    10    11    1
    14    11    12    2
    15    11    13    1
    16    14    13    1
    17    14     1    1
    18     1     2    1
    19     2     3    1
    20     3     4    1
    21     4    28    1
    22    28    30    1
    23    30    31    1
    24    31    32   ar
    25    32    33   ar
    26    33    34   ar
    27    34    35   ar
    28    35    36   ar
    29    35    37    1
    30    37    38   am
    31    38    39    2
    32    38    40    1
    33    40    41    1
    34     4     5    1
    35     5     6    1
    36     4     7    1
    37     7     8    1
    38    23    24   ar
    39    24    25   ar
    40    25    15   ar
    41    24    18   ar
    42    14     9    1
    43     6     1    1
    44     8     1    1
    45    36    31   ar
    46    41    34    1
    47    28    29    1
    48    37    42    1
