@<TRIPOS>MOLECULE
*****
 30 32 0 0 0
SMALL
GASTEIGER

@<TRIPOS>ATOM
      1 N         139.2945  138.8579  164.9154 N.4     1  UNL1        0.3055
      2 C         140.1173  137.6116  164.7750 C.3     1  UNL1        0.1708
      3 C         138.1896  139.7764  165.3460 C.3     1  UNL1        0.1139
      4 C         138.1830  141.2061  164.8924 C.3     1  UNL1        0.0879
      5 C         139.2815  141.7174  164.0081 C.ar    1  UNL1       -0.0026
      6 C         140.3864  140.7990  163.5775 C.ar    1  UNL1        0.0598
      7 S         141.3275  141.5809  162.7097 S.2     1  UNL1       -0.0709
      8 C         140.8041  142.9827  162.6040 C.ar    1  UNL1        0.0858
      9 C         139.5396  143.0670  163.4065 C.ar    1  UNL1        0.0694
     10 C         140.3930  139.3692  164.0311 C.3     1  UNL1        0.1425
     11 N         141.4345  144.1034  161.8316 N.am    1  UNL1       -0.2629
     12 C         141.1097  144.2886  160.3789 C.2     1  UNL1        0.3085
     13 O         140.1546  143.3531  159.6987 O.2     1  UNL1       -0.2521
     14 N         141.7401  145.4092  159.6064 N.am    1  UNL1       -0.2680
     15 H         142.0614  144.7173  162.2780 H       1  UNL1        0.1569
     16 H         142.3670  146.0232  160.0528 H       1  UNL1        0.1564
     17 C         141.4153  145.5944  158.1537 C.ar    1  UNL1        0.0516
     18 C         140.1364  146.2667  157.7510 C.ar    1  UNL1        0.0156
     19 C         139.8116  146.4519  156.2983 C.ar    1  UNL1        0.0127
     20 C         140.7658  145.9649  155.2484 C.ar    1  UNL1        0.0578
     21 CL        140.4410  146.1501  153.7958 Cl      1  UNL1       -0.0822
     22 C         142.0447  145.2926  155.6512 C.ar    1  UNL1        0.0127
     23 C         142.3695  145.1074  157.1039 C.ar    1  UNL1        0.0156
     24 C         138.6835  144.2868  163.5773 C.2     1  UNL1        0.2442
     25 N         137.7965  144.7434  162.4572 N.am    1  UNL1       -0.3253
     26 O         138.7143  145.0499  164.8683 O.2     1  UNL1       -0.2703
     27 H         137.7762  144.2425  161.6099 H       1  UNL1        0.1453
     28 H         137.2346  145.5440  162.5693 H       1  UNL1        0.1453
     29 C         137.7517  138.4202  166.9595 C.3     1  UNL1        0.0671
     30 C         138.4818  137.9138  165.7509 C.3     1  UNL1        0.1093
@<TRIPOS>UNITY_ATOM_ATTR
1 1
charge 1
@<TRIPOS>BOND
     1    29    30    1
     2    30     1    1
     3     1     2    1
     4     1     3    1
     5     3     4    1
     6     4     5    1
     7     5     6   ar
     8     6     7   ar
     9     7     8   ar
    10     8    11    1
    11    11    12   am
    12    12    13    2
    13    12    14   am
    14    14    17    1
    15    17    18   ar
    16    18    19   ar
    17    19    20   ar
    18    20    21    1
    19    20    22   ar
    20    22    23   ar
    21     8     9   ar
    22     9    24    1
    23    24    25   am
    24    24    26    2
    25     6    10    1
    26    10     1    1
    27     9     5   ar
    28    23    17   ar
    29    11    15    1
    30    14    16    1
    31    25    27    1
    32    25    28    1
@<TRIPOS>MOLECULE
*****
 30 32 0 0 0
SMALL
GASTEIGER

@<TRIPOS>ATOM
      1 N         140.5847  140.7295  165.8715 N.4     1  UNL1        0.3055
      2 C         141.7336  139.8758  166.3204 C.3     1  UNL1        0.1708
      3 C         139.1954  141.2869  165.7772 C.3     1  UNL1        0.1139
      4 C         138.8977  142.4011  164.8180 C.3     1  UNL1        0.0879
      5 C         139.9894  142.9579  163.9532 C.ar    1  UNL1       -0.0026
      6 C         141.3788  142.4005  164.0475 C.ar    1  UNL1        0.0598
      7 S         142.2443  143.1458  163.0750 S.2     1  UNL1       -0.0709
      8 C         141.3897  144.1637  162.3797 C.ar    1  UNL1        0.0858
      9 C         139.9961  144.0476  162.9224 C.ar    1  UNL1        0.0694
     10 C         141.6764  141.2863  165.0067 C.3     1  UNL1        0.1425
     11 N         141.8482  145.1285  161.3265 N.am    1  UNL1       -0.2629
     12 C         141.4569  144.9168  159.8940 C.2     1  UNL1        0.3085
     13 O         140.6071  143.7403  159.5147 O.2     1  UNL1       -0.2521
     14 N         141.9153  145.8815  158.8409 N.am    1  UNL1       -0.2680
     15 H         142.4059  145.9006  161.5755 H       1  UNL1        0.1569
     16 H         142.4730  146.6536  159.0898 H       1  UNL1        0.1564
     17 C         141.5240  145.6697  157.4084 C.ar    1  UNL1        0.0516
     18 C         142.3992  144.8529  156.5047 C.ar    1  UNL1        0.0156
     19 C         142.0079  144.6412  155.0722 C.ar    1  UNL1        0.0127
     20 C         140.7414  145.2463  154.5434 C.ar    1  UNL1        0.0578
     21 CL        140.3500  145.0345  153.1109 Cl      1  UNL1       -0.0822
     22 C         139.8661  146.0631  155.4471 C.ar    1  UNL1        0.0127
     23 C         140.2574  146.2748  156.8796 C.ar    1  UNL1        0.0156
     24 C         138.8164  144.8758  162.5073 C.2     1  UNL1        0.2442
     25 N         137.4243  144.3827  162.7697 N.am    1  UNL1       -0.3253
     26 O         139.0287  146.1971  161.8298 O.2     1  UNL1       -0.2703
     27 H         137.2849  143.5155  163.2144 H       1  UNL1        0.1453
     28 H         136.6500  144.9262  162.4973 H       1  UNL1        0.1453
     29 C         138.6258  139.1564  166.5334 C.3     1  UNL1        0.0671
     30 C         139.8919  139.8762  166.8923 C.3     1  UNL1        0.1093
@<TRIPOS>UNITY_ATOM_ATTR
1 1
charge 1
@<TRIPOS>BOND
     1    29    30    1
     2    30     1    1
     3     1     2    1
     4     1     3    1
     5     3     4    1
     6     4     5    1
     7     5     6   ar
     8     6     7   ar
     9     7     8   ar
    10     8    11    1
    11    11    12   am
    12    12    13    2
    13    12    14   am
    14    14    17    1
    15    17    18   ar
    16    18    19   ar
    17    19    20   ar
    18    20    21    1
    19    20    22   ar
    20    22    23   ar
    21     8     9   ar
    22     9    24    1
    23    24    25   am
    24    24    26    2
    25     6    10    1
    26    10     1    1
    27     9     5   ar
    28    23    17   ar
    29    11    15    1
    30    14    16    1
    31    25    27    1
    32    25    28    1
@<TRIPOS>MOLECULE
*****
 30 32 0 0 0
SMALL
GASTEIGER

@<TRIPOS>ATOM
      1 N         142.9849  138.9320  158.2317 N.4     1  UNL1        0.3055
      2 C         142.3699  137.7041  157.6284 C.3     1  UNL1        0.1708
      3 C         143.6019  140.2956  158.3321 C.3     1  UNL1        0.1139
      4 C         143.9995  140.8421  159.6712 C.3     1  UNL1        0.0879
      5 C         143.7803  140.0252  160.9099 C.ar    1  UNL1       -0.0026
      6 C         143.1633  138.6617  160.8095 C.ar    1  UNL1        0.0598
      7 S         143.0706  138.0917  162.1940 S.2     1  UNL1       -0.0709
      8 C         143.6303  139.1031  163.1500 C.ar    1  UNL1        0.0858
      9 C         144.0689  140.2980  162.3563 C.ar    1  UNL1        0.0694
     10 C         142.7657  138.1151  159.4704 C.3     1  UNL1        0.1425
     11 N         143.7333  138.9470  164.6383 N.am    1  UNL1       -0.2629
     12 C         142.8953  139.8022  165.5419 C.2     1  UNL1        0.3085
     13 O         141.9544  140.8136  164.9571 O.2     1  UNL1       -0.2521
     14 N         142.9983  139.6462  167.0301 N.am    1  UNL1       -0.2680
     15 H         144.3509  138.2833  165.0221 H       1  UNL1        0.1569
     16 H         143.6159  138.9825  167.4139 H       1  UNL1        0.1564
     17 C         142.1604  140.5014  167.9337 C.ar    1  UNL1        0.0516
     18 C         142.6997  141.8038  168.4462 C.ar    1  UNL1        0.0156
     19 C         141.8618  142.6591  169.3498 C.ar    1  UNL1        0.0127
     20 C         140.4845  142.2119  169.7408 C.ar    1  UNL1        0.0578
     21 CL        139.6465  143.0671  170.6444 Cl      1  UNL1       -0.0822
     22 C         139.9451  140.9095  169.2283 C.ar    1  UNL1        0.0127
     23 C         140.7830  140.0542  168.3247 C.ar    1  UNL1        0.0156
     24 C         144.6874  141.5466  162.9116 C.2     1  UNL1        0.2442
     25 N         143.8180  142.7055  163.3005 N.am    1  UNL1       -0.3253
     26 O         146.1754  141.6365  163.0781 O.2     1  UNL1       -0.2703
     27 H         142.8414  142.6465  163.1912 H       1  UNL1        0.1453
     28 H         144.2240  143.5249  163.6650 H       1  UNL1        0.1453
     29 C         144.2514  139.8295  156.1483 C.3     1  UNL1        0.0671
     30 C         142.9906  139.3226  156.7834 C.3     1  UNL1        0.1093
@<TRIPOS>UNITY_ATOM_ATTR
1 1
charge 1
@<TRIPOS>BOND
     1    29    30    1
     2    30     1    1
     3     1     2    1
     4     1     3    1
     5     3     4    1
     6     4     5    1
     7     5     6   ar
     8     6     7   ar
     9     7     8   ar
    10     8    11    1
    11    11    12   am
    12    12    13    2
    13    12    14   am
    14    14    17    1
    15    17    18   ar
    16    18    19   ar
    17    19    20   ar
    18    20    21    1
    19    20    22   ar
    20    22    23   ar
    21     8     9   ar
    22     9    24    1
    23    24    25   am
    24    24    26    2
    25     6    10    1
    26    10     1    1
    27     9     5   ar
    28    23    17   ar
    29    11    15    1
    30    14    16    1
    31    25    27    1
    32    25    28    1
@<TRIPOS>MOLECULE
*****
 30 32 0 0 0
SMALL
GASTEIGER

@<TRIPOS>ATOM
      1 N         140.9498  140.1944  167.9133 N.4     1  UNL1        0.3055
      2 C         142.2744  140.3874  168.5902 C.3     1  UNL1        0.1708
      3 C         139.4880  139.9118  167.7309 C.3     1  UNL1        0.1139
      4 C         138.8813  139.9541  166.3598 C.3     1  UNL1        0.0879
      5 C         139.7363  140.2789  165.1710 C.ar    1  UNL1       -0.0026
      6 C         141.1981  140.5614  165.3533 C.ar    1  UNL1        0.0598
      7 S         141.7863  140.8503  164.0040 S.2     1  UNL1       -0.0709
      8 C         140.6880  140.7463  162.9877 C.ar    1  UNL1        0.0858
      9 C         139.4210  140.3932  163.7090 C.ar    1  UNL1        0.0694
     10 C         141.8048  140.5192  166.7245 C.3     1  UNL1        0.1425
     11 N         140.8314  140.9582  161.5096 N.am    1  UNL1       -0.2629
     12 C         140.9388  139.7783  160.5897 C.2     1  UNL1        0.3085
     13 O         140.9029  138.3864  161.1479 O.2     1  UNL1       -0.2521
     14 N         141.0822  139.9902  159.1118 N.am    1  UNL1       -0.2680
     15 H         140.8549  141.8717  161.1433 H       1  UNL1        0.1569
     16 H         141.1058  140.9037  158.7454 H       1  UNL1        0.1564
     17 C         141.1896  138.8102  158.1919 C.ar    1  UNL1        0.0516
     18 C         140.0015  138.3776  157.3850 C.ar    1  UNL1        0.0156
     19 C         140.1089  137.1977  156.4651 C.ar    1  UNL1        0.0127
     20 C         141.4045  136.4503  156.3521 C.ar    1  UNL1        0.0578
     21 CL        141.5120  135.2704  155.4322 Cl      1  UNL1       -0.0822
     22 C         142.5927  136.8829  157.1590 C.ar    1  UNL1        0.0127
     23 C         142.4852  138.0629  158.0789 C.ar    1  UNL1        0.0156
     24 C         138.0751  140.1899  163.0788 C.2     1  UNL1        0.2442
     25 N         136.9964  141.2152  163.2668 N.am    1  UNL1       -0.3253
     26 O         137.8077  138.9615  162.2606 O.2     1  UNL1       -0.2703
     27 H         137.1718  142.0214  163.8038 H       1  UNL1        0.1453
     28 H         136.1130  141.0818  162.8533 H       1  UNL1        0.1453
     29 C         139.3889  140.6662  169.9359 C.3     1  UNL1        0.0671
     30 C         140.5547  139.9366  169.3372 C.3     1  UNL1        0.1093
@<TRIPOS>UNITY_ATOM_ATTR
1 1
charge 1
@<TRIPOS>BOND
     1    29    30    1
     2    30     1    1
     3     1     2    1
     4     1     3    1
     5     3     4    1
     6     4     5    1
     7     5     6   ar
     8     6     7   ar
     9     7     8   ar
    10     8    11    1
    11    11    12   am
    12    12    13    2
    13    12    14   am
    14    14    17    1
    15    17    18   ar
    16    18    19   ar
    17    19    20   ar
    18    20    21    1
    19    20    22   ar
    20    22    23   ar
    21     8     9   ar
    22     9    24    1
    23    24    25   am
    24    24    26    2
    25     6    10    1
    26    10     1    1
    27     9     5   ar
    28    23    17   ar
    29    11    15    1
    30    14    16    1
    31    25    27    1
    32    25    28    1
@<TRIPOS>MOLECULE
*****
 30 32 0 0 0
SMALL
GASTEIGER

@<TRIPOS>ATOM
      1 N         141.8475  140.9500  168.7031 N.4     1  UNL1        0.3055
      2 C         141.1063  139.9035  169.4814 C.3     1  UNL1        0.1708
      3 C         142.4397  142.2785  168.3366 C.3     1  UNL1        0.1139
      4 C         143.2033  142.4312  167.0546 C.3     1  UNL1        0.0879
      5 C         143.3748  141.2555  166.1391 C.ar    1  UNL1       -0.0026
      6 C         142.7826  139.9270  166.5056 C.ar    1  UNL1        0.0598
      7 S         143.1130  138.9546  165.4122 S.2     1  UNL1       -0.0709
      8 C         143.9095  139.6822  164.3700 C.ar    1  UNL1        0.0858
      9 C         144.0712  141.1042  164.8192 C.ar    1  UNL1        0.0694
     10 C         142.0189  139.7742  167.7876 C.3     1  UNL1        0.1425
     11 N         144.4494  139.0916  163.1012 N.am    1  UNL1       -0.2629
     12 C         143.7297  139.3152  161.8042 C.2     1  UNL1        0.3085
     13 O         142.4702  140.1294  161.7760 O.2     1  UNL1       -0.2521
     14 N         144.2696  138.7246  160.5355 N.am    1  UNL1       -0.2680
     15 H         145.2760  138.5572  163.1197 H       1  UNL1        0.1569
     16 H         145.0962  138.1902  160.5540 H       1  UNL1        0.1564
     17 C         143.5499  138.9481  159.2385 C.ar    1  UNL1        0.0516
     18 C         142.6164  137.9005  158.7085 C.ar    1  UNL1        0.0156
     19 C         141.8968  138.1240  157.4115 C.ar    1  UNL1        0.0127
     20 C         142.1107  139.3952  156.6445 C.ar    1  UNL1        0.0578
     21 CL        141.3910  139.6188  155.3476 Cl      1  UNL1       -0.0822
     22 C         143.0442  140.4429  157.1746 C.ar    1  UNL1        0.0127
     23 C         143.7638  140.2193  158.4715 C.ar    1  UNL1        0.0156
     24 C         144.8012  142.1852  164.0786 C.2     1  UNL1        0.2442
     25 N         146.1687  141.9209  163.5216 N.am    1  UNL1       -0.3253
     26 O         144.1639  143.5306  163.8949 O.2     1  UNL1       -0.2703
     27 H         146.5870  141.0379  163.6422 H       1  UNL1        0.1453
     28 H         146.6478  142.6304  163.0356 H       1  UNL1        0.1453
     29 C         140.6202  143.0165  169.6897 C.3     1  UNL1        0.0671
     30 C         141.4186  141.7623  169.8889 C.3     1  UNL1        0.1093
@<TRIPOS>UNITY_ATOM_ATTR
1 1
charge 1
@<TRIPOS>BOND
     1    29    30    1
     2    30     1    1
     3     1     2    1
     4     1     3    1
     5     3     4    1
     6     4     5    1
     7     5     6   ar
     8     6     7   ar
     9     7     8   ar
    10     8    11    1
    11    11    12   am
    12    12    13    2
    13    12    14   am
    14    14    17    1
    15    17    18   ar
    16    18    19   ar
    17    19    20   ar
    18    20    21    1
    19    20    22   ar
    20    22    23   ar
    21     8     9   ar
    22     9    24    1
    23    24    25   am
    24    24    26    2
    25     6    10    1
    26    10     1    1
    27     9     5   ar
    28    23    17   ar
    29    11    15    1
    30    14    16    1
    31    25    27    1
    32    25    28    1
@<TRIPOS>MOLECULE
*****
 30 32 0 0 0
SMALL
GASTEIGER

@<TRIPOS>ATOM
      1 N         140.9643  141.2991  168.8256 N.4     1  UNL1        0.3055
      2 C         141.7858  142.2088  169.6903 C.3     1  UNL1        0.1708
      3 C         140.2389  140.0709  168.3616 C.3     1  UNL1        0.1139
      4 C         139.5220  140.0760  167.0440 C.3     1  UNL1        0.0879
      5 C         139.5304  141.3094  166.1904 C.ar    1  UNL1       -0.0026
      6 C         140.2558  142.5376  166.6544 C.ar    1  UNL1        0.0598
      7 S         140.0909  143.5974  165.6056 S.2     1  UNL1       -0.0709
      8 C         139.2637  143.0240  164.4934 C.ar    1  UNL1        0.0858
      9 C         138.9173  141.6100  164.8549 C.ar    1  UNL1        0.0694
     10 C         140.9727  142.5325  167.9720 C.3     1  UNL1        0.1425
     11 N         138.8546  143.7391  163.2398 N.am    1  UNL1       -0.2629
     12 C         139.7158  143.6569  162.0145 C.2     1  UNL1        0.3085
     13 O         140.9862  142.8596  162.0427 O.2     1  UNL1       -0.2521
     14 N         139.3068  144.3719  160.7609 N.am    1  UNL1       -0.2680
     15 H         138.0209  144.2623  163.2213 H       1  UNL1        0.1569
     16 H         138.4731  144.8952  160.7424 H       1  UNL1        0.1564
     17 C         140.1681  144.2897  159.5356 C.ar    1  UNL1        0.0516
     18 C         141.1529  145.3808  159.2365 C.ar    1  UNL1        0.0156
     19 C         142.0141  145.2986  158.0111 C.ar    1  UNL1        0.0127
     20 C         141.8906  144.1253  157.0849 C.ar    1  UNL1        0.0578
     21 CL        142.7518  144.0431  155.8595 Cl      1  UNL1       -0.0822
     22 C         140.9057  143.0342  157.3840 C.ar    1  UNL1        0.0127
     23 C         140.0445  143.1164  158.6093 C.ar    1  UNL1        0.0156
     24 C         138.1011  140.6628  164.0262 C.2     1  UNL1        0.2442
     25 N         136.8530  141.1442  163.3477 N.am    1  UNL1       -0.3253
     26 O         138.5329  139.2342  163.8761 O.2     1  UNL1       -0.2703
     27 H         136.5695  142.0819  163.4462 H       1  UNL1        0.1453
     28 H         136.3173  140.5226  162.8038 H       1  UNL1        0.1453
     29 C         142.1973  139.2376  169.8154 C.3     1  UNL1        0.0671
     30 C         141.2411  140.3816  169.9795 C.3     1  UNL1        0.1093
@<TRIPOS>UNITY_ATOM_ATTR
1 1
charge 1
@<TRIPOS>BOND
     1    29    30    1
     2    30     1    1
     3     1     2    1
     4     1     3    1
     5     3     4    1
     6     4     5    1
     7     5     6   ar
     8     6     7   ar
     9     7     8   ar
    10     8    11    1
    11    11    12   am
    12    12    13    2
    13    12    14   am
    14    14    17    1
    15    17    18   ar
    16    18    19   ar
    17    19    20   ar
    18    20    21    1
    19    20    22   ar
    20    22    23   ar
    21     8     9   ar
    22     9    24    1
    23    24    25   am
    24    24    26    2
    25     6    10    1
    26    10     1    1
    27     9     5   ar
    28    23    17   ar
    29    11    15    1
    30    14    16    1
    31    25    27    1
    32    25    28    1
@<TRIPOS>MOLECULE
*****
 30 32 0 0 0
SMALL
GASTEIGER

@<TRIPOS>ATOM
      1 N         140.1166  144.4060  158.7351 N.4     1  UNL1        0.3055
      2 C         140.7601  145.6651  158.2344 C.3     1  UNL1        0.1708
      3 C         139.4722  143.0516  158.7237 C.3     1  UNL1        0.1139
      4 C         139.0540  142.4091  160.0130 C.3     1  UNL1        0.0879
      5 C         139.2802  143.1210  161.3137 C.ar    1  UNL1       -0.0026
      6 C         139.9246  144.4755  161.3251 C.ar    1  UNL1        0.0598
      7 S         140.0183  144.9322  162.7509 S.2     1  UNL1       -0.0709
      8 C         139.4318  143.8600  163.6205 C.ar    1  UNL1        0.0858
      9 C         138.9756  142.7407  162.7323 C.ar    1  UNL1        0.0694
     10 C         140.3428  145.1180  160.0358 C.3     1  UNL1        0.1425
     11 N         139.3209  143.9001  165.1160 N.am    1  UNL1       -0.2629
     12 C         140.1627  142.9852  165.9552 C.2     1  UNL1        0.3085
     13 O         141.1154  142.0302  165.2990 O.2     1  UNL1       -0.2521
     14 N         140.0519  143.0252  167.4505 N.am    1  UNL1       -0.2680
     15 H         138.6957  144.5269  165.5466 H       1  UNL1        0.1569
     16 H         139.4266  143.6520  167.8812 H       1  UNL1        0.1564
     17 C         140.8937  142.1103  168.2898 C.ar    1  UNL1        0.0516
     18 C         142.3027  142.4926  168.6337 C.ar    1  UNL1        0.0156
     19 C         143.1445  141.5777  169.4729 C.ar    1  UNL1        0.0127
     20 C         142.5772  140.2805  169.9682 C.ar    1  UNL1        0.0578
     21 CL        143.4190  139.3655  170.8075 Cl      1  UNL1       -0.0822
     22 C         141.1682  139.8982  169.6243 C.ar    1  UNL1        0.0127
     23 C         140.3264  140.8131  168.7851 C.ar    1  UNL1        0.0156
     24 C         138.3285  141.4649  163.1835 C.2     1  UNL1        0.2442
     25 N         136.8569  141.4316  163.4721 N.am    1  UNL1       -0.3253
     26 O         139.1529  140.2224  163.3461 O.2     1  UNL1       -0.2703
     27 H         136.3158  142.2471  163.3654 H       1  UNL1        0.1453
     28 H         136.4321  140.5942  163.7682 H       1  UNL1        0.1453
     29 C         138.8513  143.6885  156.5824 C.3     1  UNL1        0.0671
     30 C         140.1139  144.1313  157.2604 C.3     1  UNL1        0.1093
@<TRIPOS>UNITY_ATOM_ATTR
1 1
charge 1
@<TRIPOS>BOND
     1    29    30    1
     2    30     1    1
     3     1     2    1
     4     1     3    1
     5     3     4    1
     6     4     5    1
     7     5     6   ar
     8     6     7   ar
     9     7     8   ar
    10     8    11    1
    11    11    12   am
    12    12    13    2
    13    12    14   am
    14    14    17    1
    15    17    18   ar
    16    18    19   ar
    17    19    20   ar
    18    20    21    1
    19    20    22   ar
    20    22    23   ar
    21     8     9   ar
    22     9    24    1
    23    24    25   am
    24    24    26    2
    25     6    10    1
    26    10     1    1
    27     9     5   ar
    28    23    17   ar
    29    11    15    1
    30    14    16    1
    31    25    27    1
    32    25    28    1
@<TRIPOS>MOLECULE
*****
 30 32 0 0 0
SMALL
GASTEIGER

@<TRIPOS>ATOM
      1 N         138.8415  139.8067  158.5298 N.4     1  UNL1        0.3055
      2 C         137.7177  140.6388  157.9869 C.3     1  UNL1        0.1708
      3 C         140.0713  138.9486  158.5633 C.3     1  UNL1        0.1139
      4 C         140.6056  138.4544  159.8749 C.3     1  UNL1        0.0879
      5 C         139.9101  138.8185  161.1530 C.ar    1  UNL1       -0.0026
      6 C         138.6803  139.6766  161.1196 C.ar    1  UNL1        0.0598
      7 S         138.2117  139.8704  162.5313 S.2     1  UNL1       -0.0709
      8 C         139.1519  139.1320  163.4372 C.ar    1  UNL1        0.0858
      9 C         140.2016  138.4819  162.5854 C.ar    1  UNL1        0.0694
     10 C         138.1460  140.1707  159.8079 C.3     1  UNL1        0.1425
     11 N         139.0588  139.0568  164.9325 N.am    1  UNL1       -0.2629
     12 C         139.9423  139.9204  165.7833 C.2     1  UNL1        0.3085
     13 O         140.9188  140.8591  165.1387 O.2     1  UNL1       -0.2521
     14 N         139.8492  139.8453  167.2785 N.am    1  UNL1       -0.2680
     15 H         138.4179  138.4407  165.3555 H       1  UNL1        0.1569
     16 H         139.2083  139.2292  167.7015 H       1  UNL1        0.1564
     17 C         140.7327  140.7089  168.1292 C.ar    1  UNL1        0.0516
     18 C         140.2780  142.0805  168.5314 C.ar    1  UNL1        0.0156
     19 C         141.1614  142.9441  169.3822 C.ar    1  UNL1        0.0127
     20 C         142.4995  142.4361  169.8307 C.ar    1  UNL1        0.0578
     21 CL        143.3829  143.2996  170.6815 Cl      1  UNL1       -0.0822
     22 C         142.9542  141.0644  169.4285 C.ar    1  UNL1        0.0127
     23 C         142.0708  140.2009  168.5778 C.ar    1  UNL1        0.0156
     24 C         141.3424  137.6425  163.0793 C.2     1  UNL1        0.2442
     25 N         142.6436  137.6317  162.3331 N.am    1  UNL1       -0.3253
     26 O         141.1822  136.8139  164.3193 O.2     1  UNL1       -0.2703
     27 H         142.7489  138.1756  161.5192 H       1  UNL1        0.1453
     28 H         143.3924  137.0808  162.6573 H       1  UNL1        0.1453
     29 C         138.9543  140.9392  156.1942 C.3     1  UNL1        0.0671
     30 C         139.1468  139.7317  157.0631 C.3     1  UNL1        0.1093
@<TRIPOS>UNITY_ATOM_ATTR
1 1
charge 1
@<TRIPOS>BOND
     1    29    30    1
     2    30     1    1
     3     1     2    1
     4     1     3    1
     5     3     4    1
     6     4     5    1
     7     5     6   ar
     8     6     7   ar
     9     7     8   ar
    10     8    11    1
    11    11    12   am
    12    12    13    2
    13    12    14   am
    14    14    17    1
    15    17    18   ar
    16    18    19   ar
    17    19    20   ar
    18    20    21    1
    19    20    22   ar
    20    22    23   ar
    21     8     9   ar
    22     9    24    1
    23    24    25   am
    24    24    26    2
    25     6    10    1
    26    10     1    1
    27     9     5   ar
    28    23    17   ar
    29    11    15    1
    30    14    16    1
    31    25    27    1
    32    25    28    1
@<TRIPOS>MOLECULE
*****
 30 32 0 0 0
SMALL
GASTEIGER

@<TRIPOS>ATOM
      1 N         143.6319  141.0892  157.1964 N.4     1  UNL1        0.3055
      2 C         143.0570  140.1134  156.2129 C.3     1  UNL1        0.1708
      3 C         144.2341  142.3491  157.7440 C.3     1  UNL1        0.1139
      4 C         144.5579  142.4522  159.2050 C.3     1  UNL1        0.0879
      5 C         144.2796  141.2954  160.1184 C.ar    1  UNL1       -0.0026
      6 C         143.6774  140.0355  159.5707 C.ar    1  UNL1        0.0598
      7 S         143.5162  139.0675  160.7052 S.2     1  UNL1       -0.0709
      8 C         144.0189  139.7291  161.9540 C.ar    1  UNL1        0.0858
      9 C         144.4906  141.1061  161.5913 C.ar    1  UNL1        0.0694
     10 C         143.3535  139.9324  158.1097 C.3     1  UNL1        0.1425
     11 N         144.0451  139.1207  163.3249 N.am    1  UNL1       -0.2629
     12 C         143.0305  139.5353  164.3489 C.2     1  UNL1        0.3085
     13 O         141.9896  140.5582  164.0021 O.2     1  UNL1       -0.2521
     14 N         143.0567  138.9269  165.7198 N.am    1  UNL1       -0.2680
     15 H         144.7283  138.4494  163.5525 H       1  UNL1        0.1569
     16 H         143.7399  138.2556  165.9474 H       1  UNL1        0.1564
     17 C         142.0421  139.3414  166.7438 C.ar    1  UNL1        0.0516
     18 C         142.4739  139.6423  168.1484 C.ar    1  UNL1        0.0156
     19 C         141.4592  140.0568  169.1725 C.ar    1  UNL1        0.0127
     20 C         140.0128  140.1705  168.7919 C.ar    1  UNL1        0.0578
     21 CL        138.9982  140.5850  169.8160 Cl      1  UNL1       -0.0822
     22 C         139.5810  139.8696  167.3873 C.ar    1  UNL1        0.0127
     23 C         140.5957  139.4551  166.3633 C.ar    1  UNL1        0.0156
     24 C         145.0715  142.1163  162.5357 C.2     1  UNL1        0.2442
     25 N         144.7637  143.5735  162.3575 N.am    1  UNL1       -0.3253
     26 O         145.9601  141.6695  163.6585 O.2     1  UNL1       -0.2703
     27 H         144.1804  143.8669  161.6206 H       1  UNL1        0.1453
     28 H         145.1449  144.2366  162.9774 H       1  UNL1        0.1453
     29 C         145.0453  142.2206  155.3330 C.3     1  UNL1        0.0671
     30 C         143.7106  141.9072  155.9414 C.3     1  UNL1        0.1093
@<TRIPOS>UNITY_ATOM_ATTR
1 1
charge 1
@<TRIPOS>BOND
     1    29    30    1
     2    30     1    1
     3     1     2    1
     4     1     3    1
     5     3     4    1
     6     4     5    1
     7     5     6   ar
     8     6     7   ar
     9     7     8   ar
    10     8    11    1
    11    11    12   am
    12    12    13    2
    13    12    14   am
    14    14    17    1
    15    17    18   ar
    16    18    19   ar
    17    19    20   ar
    18    20    21    1
    19    20    22   ar
    20    22    23   ar
    21     8     9   ar
    22     9    24    1
    23    24    25   am
    24    24    26    2
    25     6    10    1
    26    10     1    1
    27     9     5   ar
    28    23    17   ar
    29    11    15    1
    30    14    16    1
    31    25    27    1
    32    25    28    1
