@<TRIPOS>MOLECULE
*****
 34 38 0 0 0
SMALL
GASTEIGER

@<TRIPOS>ATOM
      1 N         142.0498  137.4554  162.8081 N.pl3   1  UNL1       -0.2806
      2 H         142.3952  136.5738  163.0775 H       1  UNL1        0.1551
      3 N         140.3686  139.6154  165.5601 N.ar    1  UNL1       -0.2558
      4 N         139.1766  139.1979  164.7508 N.ar    1  UNL1       -0.1727
      5 C         139.6613  138.3380  163.6213 C.ar    1  UNL1        0.0935
      6 C         138.8049  137.7035  162.5659 C.3     1  UNL1        0.0553
      7 C         141.1529  138.2240  163.7327 C.ar    1  UNL1        0.0792
      8 C         141.5900  139.0135  164.9309 C.ar    1  UNL1        0.0704
      9 C         143.0007  139.1730  165.4149 C.3     1  UNL1        0.0531
     10 C         140.3583  144.5752  170.3194 C.3     1  UNL1        0.0948
     11 C         140.2685  143.0840  170.4549 C.2     1  UNL1        0.2261
     12 O         140.1537  142.4600  171.8141 O.2     1  UNL1       -0.2749
     13 N         140.2935  142.2168  169.2312 N.am    1  UNL1       -0.2794
     14 C         140.4083  142.8409  167.8720 C.3     1  UNL1        0.0954
     15 C         140.4334  141.9737  166.6483 C.3     1  UNL1        0.0459
     16 C         140.3436  140.4826  166.7838 C.3     1  UNL1        0.1083
     17 C         140.2288  139.8586  168.1429 C.3     1  UNL1        0.0459
     18 C         140.2038  140.7257  169.3667 C.3     1  UNL1        0.0954
     19 C         142.4204  138.0301  161.4730 C.ar    1  UNL1        0.2208
     20 N         143.4977  139.0694  161.3768 N.ar    1  UNL1       -0.2111
     21 C         143.8683  139.6441  160.0418 C.ar    1  UNL1        0.1147
     22 C         143.1616  139.1795  158.8029 C.ar    1  UNL1        0.0946
     23 CL        143.5322  139.7542  157.4679 Cl      1  UNL1       -0.0790
     24 C         142.0842  138.1401  158.8992 C.ar    1  UNL1        0.0992
     25 N         141.7137  137.5655  160.2342 N.ar    1  UNL1       -0.2126
     26 C         141.3775  137.6755  157.6603 C.ar    1  UNL1        0.0572
     27 C         139.9927  138.0661  157.2363 C.ar    1  UNL1        0.1235
     28 N         139.6909  137.3707  155.9419 N.ar    1  UNL1       -0.1634
     29 N         140.8892  136.5504  155.5660 N.ar    1  UNL1       -0.2281
     30 C         141.1658  135.6563  154.3939 C.ar    1  UNL1        0.1004
     31 C         142.4847  134.9505  154.2838 C.ar    1  UNL1        0.0207
     32 C         143.5271  135.1389  155.3459 C.ar    1  UNL1        0.0031
     33 C         143.2505  136.0330  156.5180 C.ar    1  UNL1        0.0193
     34 C         141.9315  136.7388  156.6281 C.ar    1  UNL1        0.0858
@<TRIPOS>BOND
     1    10    11    1
     2    11    12    2
     3    11    13   am
     4    13    14    1
     5    14    15    1
     6    15    16    1
     7    16     3    1
     8     3     4   ar
     9     4     5   ar
    10     5     6    1
    11     5     7   ar
    12     7     1    1
    13     1    19    1
    14    19    20   ar
    15    20    21   ar
    16    21    22   ar
    17    22    23    1
    18    22    24   ar
    19    24    26    1
    20    26    27   ar
    21    27    28   ar
    22    28    29   ar
    23    29    30   ar
    24    30    31   ar
    25    31    32   ar
    26    32    33   ar
    27    33    34   ar
    28    24    25   ar
    29     7     8   ar
    30     8     9    1
    31    16    17    1
    32    17    18    1
    33    18    13    1
    34     8     3   ar
    35    25    19   ar
    36    34    26   ar
    37    34    29   ar
    38     1     2    1
@<TRIPOS>MOLECULE
*****
 34 38 0 0 0
SMALL
GASTEIGER

@<TRIPOS>ATOM
      1 N         143.5262  143.7974  161.4357 N.pl3   1  UNL1       -0.2806
      2 H         144.2374  144.4475  161.2336 H       1  UNL1        0.1551
      3 N         140.2235  143.9460  159.4020 N.ar    1  UNL1       -0.2558
      4 N         139.8254  144.6689  160.6547 N.ar    1  UNL1       -0.1727
      5 C         141.0141  144.7012  161.5690 C.ar    1  UNL1        0.0935
      6 C         141.0617  145.3266  162.9316 C.3     1  UNL1        0.0553
      7 C         142.1469  143.9983  160.8814 C.ar    1  UNL1        0.0792
      8 C         141.6582  143.5316  159.5421 C.ar    1  UNL1        0.0704
      9 C         142.4631  142.7821  158.5222 C.3     1  UNL1        0.0531
     10 C         136.8696  143.6979  153.4071 C.3     1  UNL1        0.0948
     11 C         136.6961  142.8967  154.6632 C.2     1  UNL1        0.2261
     12 O         135.6407  141.8332  154.7347 O.2     1  UNL1       -0.2749
     13 N         137.5780  143.1590  155.8480 N.am    1  UNL1       -0.2794
     14 C         138.6333  144.2226  155.7764 C.3     1  UNL1        0.0954
     15 C         139.5152  144.4849  156.9612 C.3     1  UNL1        0.0459
     16 C         139.3416  143.6837  158.2174 C.3     1  UNL1        0.1083
     17 C         138.2863  142.6202  158.2888 C.3     1  UNL1        0.0459
     18 C         137.4044  142.3578  157.1042 C.3     1  UNL1        0.0954
     19 C         143.8219  142.6062  162.2979 C.ar    1  UNL1        0.2208
     20 N         145.1272  142.5167  163.0314 N.ar    1  UNL1       -0.2111
     21 C         145.4229  141.3255  163.8937 C.ar    1  UNL1        0.1147
     22 C         144.4132  140.2237  164.0225 C.ar    1  UNL1        0.0946
     23 CL        144.7089  139.0325  164.8847 Cl      1  UNL1       -0.0790
     24 C         143.1078  140.3132  163.2889 C.ar    1  UNL1        0.0992
     25 N         142.8122  141.5044  162.4267 N.ar    1  UNL1       -0.2126
     26 C         142.0981  139.2114  163.4177 C.ar    1  UNL1        0.0572
     27 C         142.0903  137.9275  162.6421 C.ar    1  UNL1        0.1235
     28 N         140.9063  137.1227  163.0898 N.ar    1  UNL1       -0.1634
     29 N         140.1823  137.9091  164.1421 N.ar    1  UNL1       -0.2281
     30 C         138.9476  137.6166  164.9419 C.ar    1  UNL1        0.1004
     31 C         138.4494  138.6149  165.9444 C.ar    1  UNL1        0.0207
     32 C         139.1860  139.9058  166.1471 C.ar    1  UNL1        0.0031
     33 C         140.4207  140.1984  165.3473 C.ar    1  UNL1        0.0193
     34 C         140.9189  139.2000  164.3448 C.ar    1  UNL1        0.0858
@<TRIPOS>BOND
     1    10    11    1
     2    11    12    2
     3    11    13   am
     4    13    14    1
     5    14    15    1
     6    15    16    1
     7    16     3    1
     8     3     4   ar
     9     4     5   ar
    10     5     6    1
    11     5     7   ar
    12     7     1    1
    13     1    19    1
    14    19    20   ar
    15    20    21   ar
    16    21    22   ar
    17    22    23    1
    18    22    24   ar
    19    24    26    1
    20    26    27   ar
    21    27    28   ar
    22    28    29   ar
    23    29    30   ar
    24    30    31   ar
    25    31    32   ar
    26    32    33   ar
    27    33    34   ar
    28    24    25   ar
    29     7     8   ar
    30     8     9    1
    31    16    17    1
    32    17    18    1
    33    18    13    1
    34     8     3   ar
    35    25    19   ar
    36    34    26   ar
    37    34    29   ar
    38     1     2    1
@<TRIPOS>MOLECULE
*****
 34 38 0 0 0
SMALL
GASTEIGER

@<TRIPOS>ATOM
      1 N         137.3338  140.5042  162.2039 N.pl3   1  UNL1       -0.2806
      2 H         136.3636  140.3396  162.2353 H       1  UNL1        0.1551
      3 N         139.4264  140.2554  165.4634 N.ar    1  UNL1       -0.2558
      4 N         139.6158  138.8815  164.8918 N.ar    1  UNL1       -0.1727
      5 C         138.8549  138.8075  163.6012 C.ar    1  UNL1        0.0935
      6 C         138.7688  137.6148  162.6956 C.3     1  UNL1        0.0553
      7 C         138.1953  140.1357  163.3752 C.ar    1  UNL1        0.0792
      8 C         138.5485  141.0305  164.5261 C.ar    1  UNL1        0.0704
      9 C         138.1022  142.4509  164.7078 C.3     1  UNL1        0.0531
     10 C         142.9358  143.2350  170.5679 C.3     1  UNL1        0.0948
     11 C         141.7691  142.2928  170.5977 C.2     1  UNL1        0.2261
     12 O         141.1880  141.8599  171.9111 O.2     1  UNL1       -0.2749
     13 N         141.1834  141.7834  169.3141 N.am    1  UNL1       -0.2794
     14 C         141.7645  142.2164  168.0008 C.3     1  UNL1        0.0954
     15 C         141.1788  141.7070  166.7171 C.3     1  UNL1        0.0459
     16 C         140.0120  140.7648  166.7470 C.3     1  UNL1        0.1083
     17 C         139.4310  140.3319  168.0603 C.3     1  UNL1        0.0459
     18 C         140.0166  140.8412  169.3439 C.3     1  UNL1        0.0954
     19 C         137.9503  141.1234  160.9847 C.ar    1  UNL1        0.2208
     20 N         138.6594  142.4410  161.0898 N.ar    1  UNL1       -0.2111
     21 C         139.2759  143.0603  159.8706 C.ar    1  UNL1        0.1147
     22 C         139.1834  142.3619  158.5463 C.ar    1  UNL1        0.0946
     23 CL        139.7999  142.9812  157.3271 Cl      1  UNL1       -0.0790
     24 C         138.4742  141.0442  158.4412 C.ar    1  UNL1        0.0992
     25 N         137.8578  140.4251  159.6604 N.ar    1  UNL1       -0.2126
     26 C         138.3817  140.3458  157.1169 C.ar    1  UNL1        0.0572
     27 C         139.3592  139.3436  156.5785 C.ar    1  UNL1        0.1235
     28 N         138.8770  138.9055  155.2274 N.ar    1  UNL1       -0.1634
     29 N         137.6015  139.6370  154.9308 N.ar    1  UNL1       -0.2281
     30 C         136.6792  139.6075  153.7482 C.ar    1  UNL1        0.1004
     31 C         135.4509  140.4682  153.7334 C.ar    1  UNL1        0.0207
     32 C         135.1448  141.3584  154.9013 C.ar    1  UNL1        0.0031
     33 C         136.0670  141.3879  156.0838 C.ar    1  UNL1        0.0193
     34 C         137.2954  140.5272  156.0986 C.ar    1  UNL1        0.0858
@<TRIPOS>BOND
     1    10    11    1
     2    11    12    2
     3    11    13   am
     4    13    14    1
     5    14    15    1
     6    15    16    1
     7    16     3    1
     8     3     4   ar
     9     4     5   ar
    10     5     6    1
    11     5     7   ar
    12     7     1    1
    13     1    19    1
    14    19    20   ar
    15    20    21   ar
    16    21    22   ar
    17    22    23    1
    18    22    24   ar
    19    24    26    1
    20    26    27   ar
    21    27    28   ar
    22    28    29   ar
    23    29    30   ar
    24    30    31   ar
    25    31    32   ar
    26    32    33   ar
    27    33    34   ar
    28    24    25   ar
    29     7     8   ar
    30     8     9    1
    31    16    17    1
    32    17    18    1
    33    18    13    1
    34     8     3   ar
    35    25    19   ar
    36    34    26   ar
    37    34    29   ar
    38     1     2    1
@<TRIPOS>MOLECULE
*****
 34 38 0 0 0
SMALL
GASTEIGER

@<TRIPOS>ATOM
      1 N         139.4477  142.8258  162.4339 N.pl3   1  UNL1       -0.2806
      2 H         138.6706  143.4267  162.4985 H       1  UNL1        0.1551
      3 N         142.3682  143.3575  159.9331 N.ar    1  UNL1       -0.2558
      4 N         142.6624  144.4182  160.9523 N.ar    1  UNL1       -0.1727
      5 C         141.6042  144.3481  162.0131 C.ar    1  UNL1        0.0935
      6 C         141.5107  145.2275  163.2246 C.3     1  UNL1        0.0553
      7 C         140.6560  143.2441  161.6496 C.ar    1  UNL1        0.0792
      8 C         141.1282  142.6319  160.3641 C.ar    1  UNL1        0.0704
      9 C         140.4750  141.4940  159.6373 C.3     1  UNL1        0.0531
     10 C         146.9523  141.6094  155.1186 C.3     1  UNL1        0.0948
     11 C         145.5864  142.2176  154.9992 C.2     1  UNL1        0.2261
     12 O         145.0250  142.5410  153.6463 O.2     1  UNL1       -0.2749
     13 N         144.7818  142.5026  156.2327 N.am    1  UNL1       -0.2794
     14 C         145.3432  142.1793  157.5856 C.3     1  UNL1        0.0954
     15 C         144.5386  142.4643  158.8191 C.3     1  UNL1        0.0459
     16 C         143.1727  143.0726  158.6997 C.3     1  UNL1        0.1083
     17 C         142.6114  143.3959  157.3468 C.3     1  UNL1        0.0459
     18 C         143.4159  143.1109  156.1133 C.3     1  UNL1        0.0954
     19 C         139.4236  141.4920  163.1198 C.ar    1  UNL1        0.2208
     20 N         138.5317  140.4007  162.6063 N.ar    1  UNL1       -0.2111
     21 C         138.5075  139.0669  163.2922 C.ar    1  UNL1        0.1147
     22 C         139.3752  138.8245  164.4915 C.ar    1  UNL1        0.0946
     23 CL        139.3510  137.4907  165.1774 Cl      1  UNL1       -0.0790
     24 C         140.2671  139.9158  165.0050 C.ar    1  UNL1        0.0992
     25 N         140.2912  141.2495  164.3191 N.ar    1  UNL1       -0.2126
     26 C         141.1347  139.6734  166.2043 C.ar    1  UNL1        0.0572
     27 C         142.5571  139.1976  166.1819 C.ar    1  UNL1        0.1235
     28 N         143.0337  139.0943  167.6004 N.ar    1  UNL1       -0.1634
     29 N         141.9059  139.5062  168.4995 N.ar    1  UNL1       -0.2281
     30 C         141.7961  139.6016  169.9924 C.ar    1  UNL1        0.1004
     31 C         140.5126  140.0549  170.6225 C.ar    1  UNL1        0.0207
     32 C         139.3389  140.4128  169.7597 C.ar    1  UNL1        0.0031
     33 C         139.4487  140.3174  168.2668 C.ar    1  UNL1        0.0193
     34 C         140.7323  139.8641  167.6367 C.ar    1  UNL1        0.0858
@<TRIPOS>BOND
     1    10    11    1
     2    11    12    2
     3    11    13   am
     4    13    14    1
     5    14    15    1
     6    15    16    1
     7    16     3    1
     8     3     4   ar
     9     4     5   ar
    10     5     6    1
    11     5     7   ar
    12     7     1    1
    13     1    19    1
    14    19    20   ar
    15    20    21   ar
    16    21    22   ar
    17    22    23    1
    18    22    24   ar
    19    24    26    1
    20    26    27   ar
    21    27    28   ar
    22    28    29   ar
    23    29    30   ar
    24    30    31   ar
    25    31    32   ar
    26    32    33   ar
    27    33    34   ar
    28    24    25   ar
    29     7     8   ar
    30     8     9    1
    31    16    17    1
    32    17    18    1
    33    18    13    1
    34     8     3   ar
    35    25    19   ar
    36    34    26   ar
    37    34    29   ar
    38     1     2    1
@<TRIPOS>MOLECULE
*****
 34 38 0 0 0
SMALL
GASTEIGER

@<TRIPOS>ATOM
      1 N         137.4959  140.8478  161.9175 N.pl3   1  UNL1       -0.2806
      2 H         136.5164  140.9419  161.8868 H       1  UNL1        0.1551
      3 N         139.1755  140.2055  165.3572 N.ar    1  UNL1       -0.2558
      4 N         139.1914  138.8273  164.7650 N.ar    1  UNL1       -0.1727
      5 C         138.5641  138.9002  163.4044 C.ar    1  UNL1        0.0935
      6 C         138.3738  137.7517  162.4586 C.3     1  UNL1        0.0553
      7 C         138.1606  140.3235  163.1557 C.ar    1  UNL1        0.0792
      8 C         138.5385  141.1301  164.3626 C.ar    1  UNL1        0.0704
      9 C         138.3180  142.6027  164.5432 C.3     1  UNL1        0.0531
     10 C         142.3707  142.7815  170.8713 C.3     1  UNL1        0.0948
     11 C         141.2892  141.7485  170.7565 C.2     1  UNL1        0.2261
     12 O         140.7361  141.1013  171.9914 O.2     1  UNL1       -0.2749
     13 N         140.7607  141.3627  169.4066 N.am    1  UNL1       -0.2794
     14 C         141.3139  142.0100  168.1717 C.3     1  UNL1        0.0954
     15 C         140.7854  141.6242  166.8218 C.3     1  UNL1        0.0459
     16 C         139.7039  140.5912  166.7070 C.3     1  UNL1        0.1083
     17 C         139.1508  139.9440  167.9419 C.3     1  UNL1        0.0459
     18 C         139.6792  140.3297  169.2918 C.3     1  UNL1        0.0954
     19 C         138.3236  141.2289  160.7259 C.ar    1  UNL1        0.2208
     20 N         138.1541  142.5796  160.0961 N.ar    1  UNL1       -0.2111
     21 C         138.9818  142.9606  158.9045 C.ar    1  UNL1        0.1147
     22 C         139.9789  141.9910  158.3429 C.ar    1  UNL1        0.0946
     23 CL        140.8066  142.3720  157.1513 Cl      1  UNL1       -0.0790
     24 C         140.1484  140.6401  158.9728 C.ar    1  UNL1        0.0992
     25 N         139.3207  140.2592  160.1643 N.ar    1  UNL1       -0.2126
     26 C         141.1455  139.6704  158.4111 C.ar    1  UNL1        0.0572
     27 C         142.6086  139.6219  158.7379 C.ar    1  UNL1        0.1235
     28 N         143.2219  138.5005  157.9528 N.ar    1  UNL1       -0.1634
     29 N         142.1378  137.8560  157.1408 N.ar    1  UNL1       -0.2281
     30 C         142.1534  136.7042  156.1801 C.ar    1  UNL1        0.1004
     31 C         140.8856  136.2755  155.5026 C.ar    1  UNL1        0.0207
     32 C         139.6023  136.9986  155.7859 C.ar    1  UNL1        0.0031
     33 C         139.5867  138.1504  156.7466 C.ar    1  UNL1        0.0193
     34 C         140.8545  138.5791  157.4241 C.ar    1  UNL1        0.0858
@<TRIPOS>BOND
     1    10    11    1
     2    11    12    2
     3    11    13   am
     4    13    14    1
     5    14    15    1
     6    15    16    1
     7    16     3    1
     8     3     4   ar
     9     4     5   ar
    10     5     6    1
    11     5     7   ar
    12     7     1    1
    13     1    19    1
    14    19    20   ar
    15    20    21   ar
    16    21    22   ar
    17    22    23    1
    18    22    24   ar
    19    24    26    1
    20    26    27   ar
    21    27    28   ar
    22    28    29   ar
    23    29    30   ar
    24    30    31   ar
    25    31    32   ar
    26    32    33   ar
    27    33    34   ar
    28    24    25   ar
    29     7     8   ar
    30     8     9    1
    31    16    17    1
    32    17    18    1
    33    18    13    1
    34     8     3   ar
    35    25    19   ar
    36    34    26   ar
    37    34    29   ar
    38     1     2    1
@<TRIPOS>MOLECULE
*****
 34 38 0 0 0
SMALL
GASTEIGER

@<TRIPOS>ATOM
      1 N         142.7035  144.5890  161.6980 N.pl3   1  UNL1       -0.2806
      2 H         143.2497  145.4073  161.6635 H       1  UNL1        0.1551
      3 N         142.4164  142.5219  164.9707 N.ar    1  UNL1       -0.2558
      4 N         143.6266  141.8994  164.3398 N.ar    1  UNL1       -0.1727
      5 C         143.8815  142.5979  163.0371 C.ar    1  UNL1        0.0935
      6 C         144.9937  142.2954  162.0772 C.3     1  UNL1        0.0553
      7 C         142.8287  143.6522  162.8628 C.ar    1  UNL1        0.0792
      8 C         141.9232  143.6052  164.0578 C.ar    1  UNL1        0.0704
      9 C         140.7336  144.4867  164.2978 C.3     1  UNL1        0.0531
     10 C         138.6602  140.2351  170.2538 C.3     1  UNL1        0.0948
     11 C         139.9764  140.9540  170.2231 C.2     1  UNL1        0.2261
     12 O         140.6825  141.2809  171.5055 O.2     1  UNL1       -0.2749
     13 N         140.5864  141.3460  168.9100 N.am    1  UNL1       -0.2794
     14 C         139.8802  141.0190  167.6276 C.3     1  UNL1        0.0954
     15 C         140.4902  141.4110  166.3145 C.3     1  UNL1        0.0459
     16 C         141.8064  142.1299  166.2838 C.3     1  UNL1        0.1083
     17 C         142.5125  142.4568  167.5661 C.3     1  UNL1        0.0459
     18 C         141.9026  142.0649  168.8792 C.3     1  UNL1        0.0954
     19 C         141.7460  144.2790  160.5857 C.ar    1  UNL1        0.2208
     20 N         140.5159  143.4657  160.8599 N.ar    1  UNL1       -0.2111
     21 C         139.5584  143.1557  159.7477 C.ar    1  UNL1        0.1147
     22 C         139.8311  143.6590  158.3612 C.ar    1  UNL1        0.0946
     23 CL        138.8736  143.3490  157.2489 Cl      1  UNL1       -0.0790
     24 C         141.0613  144.4724  158.0870 C.ar    1  UNL1        0.0992
     25 N         142.0187  144.7823  159.1993 N.ar    1  UNL1       -0.2126
     26 C         141.3340  144.9757  156.7005 C.ar    1  UNL1        0.0572
     27 C         142.3677  144.4392  155.7552 C.ar    1  UNL1        0.1235
     28 N         142.2934  145.2359  154.4864 N.ar    1  UNL1       -0.1634
     29 N         141.2138  146.2647  154.6476 N.ar    1  UNL1       -0.2281
     30 C         140.6940  147.3272  153.7251 C.ar    1  UNL1        0.1004
     31 C         139.5814  148.2289  154.1711 C.ar    1  UNL1        0.0207
     32 C         138.9885  148.0681  155.5395 C.ar    1  UNL1        0.0031
     33 C         139.5082  147.0056  156.4620 C.ar    1  UNL1        0.0193
     34 C         140.6208  146.1039  156.0160 C.ar    1  UNL1        0.0858
@<TRIPOS>BOND
     1    10    11    1
     2    11    12    2
     3    11    13   am
     4    13    14    1
     5    14    15    1
     6    15    16    1
     7    16     3    1
     8     3     4   ar
     9     4     5   ar
    10     5     6    1
    11     5     7   ar
    12     7     1    1
    13     1    19    1
    14    19    20   ar
    15    20    21   ar
    16    21    22   ar
    17    22    23    1
    18    22    24   ar
    19    24    26    1
    20    26    27   ar
    21    27    28   ar
    22    28    29   ar
    23    29    30   ar
    24    30    31   ar
    25    31    32   ar
    26    32    33   ar
    27    33    34   ar
    28    24    25   ar
    29     7     8   ar
    30     8     9    1
    31    16    17    1
    32    17    18    1
    33    18    13    1
    34     8     3   ar
    35    25    19   ar
    36    34    26   ar
    37    34    29   ar
    38     1     2    1
@<TRIPOS>MOLECULE
*****
 34 38 0 0 0
SMALL
GASTEIGER

@<TRIPOS>ATOM
      1 N         141.0603  145.5274  162.2815 N.pl3   1  UNL1       -0.2806
      2 H         141.1922  146.4917  162.4297 H       1  UNL1        0.1551
      3 N         140.4146  143.2624  165.3667 N.ar    1  UNL1       -0.2558
      4 N         139.0262  143.4066  164.8172 N.ar    1  UNL1       -0.1727
      5 C         139.0992  144.2726  163.5946 C.ar    1  UNL1        0.0935
      6 C         137.9419  144.6765  162.7300 C.3     1  UNL1        0.0553
      7 C         140.5326  144.6636  163.3884 C.ar    1  UNL1        0.0792
      8 C         141.3455  144.0393  164.4837 C.ar    1  UNL1        0.0704
      9 C         142.8289  144.1691  164.6641 C.3     1  UNL1        0.0531
     10 C         142.6055  138.7774  170.0926 C.3     1  UNL1        0.0948
     11 C         141.9708  140.1284  170.2407 C.2     1  UNL1        0.2261
     12 O         141.7252  140.6959  171.6073 O.2     1  UNL1       -0.2749
     13 N         141.5817  140.9120  169.0222 N.am    1  UNL1       -0.2794
     14 C         141.8274  140.3444  167.6556 C.3     1  UNL1        0.0954
     15 C         141.4384  141.1279  166.4371 C.3     1  UNL1        0.0459
     16 C         140.8037  142.4789  166.5852 C.3     1  UNL1        0.1083
     17 C         140.5580  143.0464  167.9517 C.3     1  UNL1        0.0459
     18 C         140.9470  142.2630  169.1703 C.3     1  UNL1        0.0954
     19 C         141.3870  144.9220  160.9485 C.ar    1  UNL1        0.2208
     20 N         142.5622  143.9999  160.8114 N.ar    1  UNL1       -0.2111
     21 C         142.8889  143.3945  159.4784 C.ar    1  UNL1        0.1147
     22 C         142.0405  143.7112  158.2826 C.ar    1  UNL1        0.0946
     23 CL        142.3672  143.1058  156.9497 Cl      1  UNL1       -0.0790
     24 C         140.8653  144.6333  158.4198 C.ar    1  UNL1        0.0992
     25 N         140.5386  145.2386  159.7527 N.ar    1  UNL1       -0.2126
     26 C         140.0168  144.9499  157.2240 C.ar    1  UNL1        0.0572
     27 C         140.1703  146.1403  156.3243 C.ar    1  UNL1        0.1235
     28 N         139.1143  146.0578  155.2623 N.ar    1  UNL1       -0.1634
     29 N         138.3081  144.8164  155.5056 N.ar    1  UNL1       -0.2281
     30 C         137.1382  144.2211  154.7797 C.ar    1  UNL1        0.1004
     31 C         136.5261  142.9411  155.2664 C.ar    1  UNL1        0.0207
     32 C         137.0839  142.2564  156.4788 C.ar    1  UNL1        0.0031
     33 C         138.2538  142.8517  157.2046 C.ar    1  UNL1        0.0193
     34 C         138.8659  144.1317  156.7180 C.ar    1  UNL1        0.0858
@<TRIPOS>BOND
     1    10    11    1
     2    11    12    2
     3    11    13   am
     4    13    14    1
     5    14    15    1
     6    15    16    1
     7    16     3    1
     8     3     4   ar
     9     4     5   ar
    10     5     6    1
    11     5     7   ar
    12     7     1    1
    13     1    19    1
    14    19    20   ar
    15    20    21   ar
    16    21    22   ar
    17    22    23    1
    18    22    24   ar
    19    24    26    1
    20    26    27   ar
    21    27    28   ar
    22    28    29   ar
    23    29    30   ar
    24    30    31   ar
    25    31    32   ar
    26    32    33   ar
    27    33    34   ar
    28    24    25   ar
    29     7     8   ar
    30     8     9    1
    31    16    17    1
    32    17    18    1
    33    18    13    1
    34     8     3   ar
    35    25    19   ar
    36    34    26   ar
    37    34    29   ar
    38     1     2    1
@<TRIPOS>MOLECULE
*****
 34 38 0 0 0
SMALL
GASTEIGER

@<TRIPOS>ATOM
      1 N         138.1695  142.7874  159.8741 N.pl3   1  UNL1       -0.2806
      2 H         137.3217  143.1800  159.5636 H       1  UNL1        0.1551
      3 N         140.2920  140.3180  157.7617 N.ar    1  UNL1       -0.2558
      4 N         140.5842  141.6166  157.0699 N.ar    1  UNL1       -0.1727
      5 C         139.8247  142.6997  157.7771 C.ar    1  UNL1        0.0935
      6 C         139.8265  144.1561  157.4184 C.3     1  UNL1        0.0553
      7 C         139.0630  142.0705  158.9059 C.ar    1  UNL1        0.0792
      8 C         139.3519  140.5985  158.8963 C.ar    1  UNL1        0.0704
      9 C         138.7979  139.5852  159.8534 C.3     1  UNL1        0.0531
     10 C         141.7377  134.0611  155.3098 C.3     1  UNL1        0.0948
     11 C         142.4966  134.9450  156.2546 C.2     1  UNL1        0.2261
     12 O         143.8067  134.4857  156.8227 O.2     1  UNL1       -0.2749
     13 N         141.9455  136.2883  156.6314 N.am    1  UNL1       -0.2794
     14 C         140.6354  136.7476  156.0633 C.3     1  UNL1        0.0954
     15 C         140.0842  138.0909  156.4401 C.3     1  UNL1        0.0459
     16 C         140.8432  138.9748  157.3849 C.3     1  UNL1        0.1083
     17 C         142.1532  138.5155  157.9530 C.3     1  UNL1        0.0459
     18 C         142.7044  137.1722  157.5763 C.3     1  UNL1        0.0954
     19 C         138.5675  142.9062  161.3154 C.ar    1  UNL1        0.2208
     20 N         137.5259  142.8153  162.3910 N.ar    1  UNL1       -0.2111
     21 C         137.9239  142.9341  163.8324 C.ar    1  UNL1        0.1147
     22 C         139.3635  143.1438  164.1981 C.ar    1  UNL1        0.0946
     23 CL        139.7615  143.2626  165.6394 Cl      1  UNL1       -0.0790
     24 C         140.4051  143.2347  163.1224 C.ar    1  UNL1        0.0992
     25 N         140.0070  143.1159  161.6812 N.ar    1  UNL1       -0.2126
     26 C         141.8446  143.4443  163.4882 C.ar    1  UNL1        0.0572
     27 C         142.4911  144.7602  163.8053 C.ar    1  UNL1        0.1235
     28 N         143.9364  144.5040  164.1141 N.ar    1  UNL1       -0.1634
     29 N         144.1832  143.0298  163.9879 N.ar    1  UNL1       -0.2281
     30 C         145.4181  142.1992  164.1752 C.ar    1  UNL1        0.1004
     31 C         145.3601  140.7137  163.9757 C.ar    1  UNL1        0.0207
     32 C         144.0673  140.0588  163.5889 C.ar    1  UNL1        0.0031
     33 C         142.8324  140.8894  163.4015 C.ar    1  UNL1        0.0193
     34 C         142.8904  142.3749  163.6010 C.ar    1  UNL1        0.0858
@<TRIPOS>BOND
     1    10    11    1
     2    11    12    2
     3    11    13   am
     4    13    14    1
     5    14    15    1
     6    15    16    1
     7    16     3    1
     8     3     4   ar
     9     4     5   ar
    10     5     6    1
    11     5     7   ar
    12     7     1    1
    13     1    19    1
    14    19    20   ar
    15    20    21   ar
    16    21    22   ar
    17    22    23    1
    18    22    24   ar
    19    24    26    1
    20    26    27   ar
    21    27    28   ar
    22    28    29   ar
    23    29    30   ar
    24    30    31   ar
    25    31    32   ar
    26    32    33   ar
    27    33    34   ar
    28    24    25   ar
    29     7     8   ar
    30     8     9    1
    31    16    17    1
    32    17    18    1
    33    18    13    1
    34     8     3   ar
    35    25    19   ar
    36    34    26   ar
    37    34    29   ar
    38     1     2    1
@<TRIPOS>MOLECULE
*****
 34 38 0 0 0
SMALL
GASTEIGER

@<TRIPOS>ATOM
      1 N         140.7174  138.1162  161.3922 N.pl3   1  UNL1       -0.2806
      2 H         140.7280  137.1327  161.3503 H       1  UNL1        0.1551
      3 N         139.5565  139.9558  164.6068 N.ar    1  UNL1       -0.2558
      4 N         138.2568  139.8065  163.8728 N.ar    1  UNL1       -0.1727
      5 C         138.5335  139.0992  162.5793 C.ar    1  UNL1        0.0935
      6 C         137.5179  138.7424  161.5347 C.3     1  UNL1        0.0553
      7 C         140.0043  138.8114  162.5138 C.ar    1  UNL1        0.0792
      8 C         140.6364  139.3408  163.7669 C.ar    1  UNL1        0.0704
      9 C         142.0928  139.2680  164.1183 C.3     1  UNL1        0.0531
     10 C         140.7155  143.9967  170.0454 C.3     1  UNL1        0.0948
     11 C         140.3041  142.5566  169.9619 C.2     1  UNL1        0.2261
     12 O         140.0796  141.7667  171.2172 O.2     1  UNL1       -0.2749
     13 N         140.1172  141.9064  168.6231 N.am    1  UNL1       -0.2794
     14 C         140.3417  142.6963  167.3679 C.3     1  UNL1        0.0954
     15 C         140.1548  142.0461  166.0290 C.3     1  UNL1        0.0459
     16 C         139.7434  140.6060  165.9456 C.3     1  UNL1        0.1083
     17 C         139.5189  139.8162  167.2008 C.3     1  UNL1        0.0459
     18 C         139.7058  140.4663  168.5396 C.3     1  UNL1        0.0954
     19 C         141.4144  138.9195  160.3344 C.ar    1  UNL1        0.2208
     20 N         142.3088  138.2373  159.3421 N.ar    1  UNL1       -0.2111
     21 C         143.0058  139.0405  158.2844 C.ar    1  UNL1        0.1147
     22 C         142.8084  140.5261  158.2189 C.ar    1  UNL1        0.0946
     23 CL        143.5054  141.3293  157.1611 Cl      1  UNL1       -0.0790
     24 C         141.9140  141.2083  159.2112 C.ar    1  UNL1        0.0992
     25 N         141.2170  140.4050  160.2689 N.ar    1  UNL1       -0.2126
     26 C         141.7166  142.6938  159.1457 C.ar    1  UNL1        0.0572
     27 C         142.2598  143.6991  160.1175 C.ar    1  UNL1        0.1235
     28 N         141.8202  145.0614  159.6692 N.ar    1  UNL1       -0.1634
     29 N         141.0054  144.8981  158.4205 N.ar    1  UNL1       -0.2281
     30 C         140.3135  145.8927  157.5362 C.ar    1  UNL1        0.1004
     31 C         139.5575  145.4241  156.3284 C.ar    1  UNL1        0.0207
     32 C         139.4935  143.9608  156.0049 C.ar    1  UNL1        0.0031
     33 C         140.1854  142.9662  156.8891 C.ar    1  UNL1        0.0193
     34 C         140.9413  143.4348  158.0969 C.ar    1  UNL1        0.0858
@<TRIPOS>BOND
     1    10    11    1
     2    11    12    2
     3    11    13   am
     4    13    14    1
     5    14    15    1
     6    15    16    1
     7    16     3    1
     8     3     4   ar
     9     4     5   ar
    10     5     6    1
    11     5     7   ar
    12     7     1    1
    13     1    19    1
    14    19    20   ar
    15    20    21   ar
    16    21    22   ar
    17    22    23    1
    18    22    24   ar
    19    24    26    1
    20    26    27   ar
    21    27    28   ar
    22    28    29   ar
    23    29    30   ar
    24    30    31   ar
    25    31    32   ar
    26    32    33   ar
    27    33    34   ar
    28    24    25   ar
    29     7     8   ar
    30     8     9    1
    31    16    17    1
    32    17    18    1
    33    18    13    1
    34     8     3   ar
    35    25    19   ar
    36    34    26   ar
    37    34    29   ar
    38     1     2    1
