@<TRIPOS>MOLECULE
*****
 25 26 0 0 0
SMALL
GASTEIGER

@<TRIPOS>ATOM
      1 C         139.4611  139.8569  167.1997 C.ar    1  UNL1        0.0015
      2 C         138.1610  139.1964  167.5511 C.ar    1  UNL1        0.0001
      3 C         137.6765  138.0222  166.7533 C.ar    1  UNL1        0.0014
      4 C         138.4921  137.5084  165.6041 C.ar    1  UNL1        0.0202
      5 C         139.7922  138.1688  165.2526 C.ar    1  UNL1        0.1252
      6 C         140.2767  139.3431  166.0504 C.ar    1  UNL1        0.0202
      7 S         140.6078  137.6551  164.1033 S.O2    1  UNL1        0.0736
      8 O         139.3492  137.3478  163.3474 O.2     1  UNL1       -0.1499
      9 O         141.8664  137.9623  164.8593 O.2     1  UNL1       -0.1499
     10 N         141.4235  137.1413  162.9541 N.pl3   1  UNL1       -0.2150
     11 H         141.5317  136.1718  162.8219 H       1  UNL1        0.1737
     12 C         142.0742  138.1048  162.0064 C.ar    1  UNL1        0.0648
     13 C         143.5562  138.0495  161.7808 C.ar    1  UNL1        0.0159
     14 C         144.2069  139.0130  160.8330 C.ar    1  UNL1        0.0013
     15 C         143.3757  140.0317  160.1108 C.ar    1  UNL1        0.0001
     16 C         141.8939  140.0869  160.3365 C.ar    1  UNL1        0.0013
     17 C         141.2431  139.1234  161.2842 C.ar    1  UNL1        0.0159
     18 C         139.6161  141.1333  169.4572 C.2     1  UNL1        0.0598
     19 C         139.9456  141.0311  167.9975 C.2     1  UNL1        0.0048
     20 O         140.5297  142.1204  171.6801 O.2     1  UNL1       -0.2681
     21 C         140.1006  142.3075  170.2550 C.2     1  UNL1        0.2679
     22 N         140.1561  143.6689  169.6276 N.am    1  UNL1       -0.1934
     23 O         140.6406  144.8432  170.4254 O.3     1  UNL1       -0.2949
     24 H         139.8745  143.7918  168.6923 H       1  UNL1        0.1825
     25 H         140.8765  144.5512  171.3199 H       1  UNL1        0.2414
@<TRIPOS>BOND
     1    20    21    2
     2    21    18    1
     3    18    19    2
     4    19     1    1
     5     1     2   ar
     6     2     3   ar
     7     3     4   ar
     8     4     5   ar
     9     5     7    1
    10     7     8    2
    11     7     9    2
    12     7    10    1
    13    10    12    1
    14    12    13   ar
    15    13    14   ar
    16    14    15   ar
    17    15    16   ar
    18    16    17   ar
    19     5     6   ar
    20    21    22   am
    21    22    23    1
    22     6     1   ar
    23    17    12   ar
    24    10    11    1
    25    22    24    1
    26    23    25    1
@<TRIPOS>MOLECULE
*****
 25 26 0 0 0
SMALL
GASTEIGER

@<TRIPOS>ATOM
      1 C         138.5009  139.1626  166.0321 C.ar    1  UNL1        0.0015
      2 C         138.7810  137.9079  165.2594 C.ar    1  UNL1        0.0001
      3 C         138.7547  137.9289  163.7598 C.ar    1  UNL1        0.0014
      4 C         138.4484  139.2047  163.0329 C.ar    1  UNL1        0.0202
      5 C         138.1683  140.4594  163.8056 C.ar    1  UNL1        0.1252
      6 C         138.1945  140.4384  165.3052 C.ar    1  UNL1        0.0202
      7 S         137.8619  141.7353  163.0787 S.O2    1  UNL1        0.0736
      8 O         137.3245  140.9469  161.9213 O.2     1  UNL1       -0.1499
      9 O         138.3993  142.5237  164.2361 O.2     1  UNL1       -0.1499
     10 N         137.5556  143.0112  162.3518 N.pl3   1  UNL1       -0.2150
     11 H         136.6245  143.3211  162.2725 H       1  UNL1        0.1737
     12 C         138.6678  143.8148  161.7459 C.ar    1  UNL1        0.0648
     13 C         139.4187  143.2824  160.5615 C.ar    1  UNL1        0.0159
     14 C         140.5309  144.0860  159.9556 C.ar    1  UNL1        0.0013
     15 C         140.8922  145.4221  160.5340 C.ar    1  UNL1        0.0001
     16 C         140.1413  145.9544  161.7184 C.ar    1  UNL1        0.0013
     17 C         139.0291  145.1508  162.3243 C.ar    1  UNL1        0.0159
     18 C         139.3131  140.1751  168.2827 C.2     1  UNL1        0.0598
     19 C         138.5272  139.1415  167.5317 C.2     1  UNL1        0.0048
     20 O         138.0984  139.8055  170.5493 O.2     1  UNL1       -0.2681
     21 C         139.3394  140.1540  169.7823 C.2     1  UNL1        0.2679
     22 N         140.6068  140.4815  170.5149 N.am    1  UNL1       -0.1934
     23 O         140.6330  140.4605  172.0145 O.3     1  UNL1       -0.2949
     24 H         141.4213  140.7102  170.0115 H       1  UNL1        0.1825
     25 H         139.7557  140.2180  172.3499 H       1  UNL1        0.2414
@<TRIPOS>BOND
     1    20    21    2
     2    21    18    1
     3    18    19    2
     4    19     1    1
     5     1     2   ar
     6     2     3   ar
     7     3     4   ar
     8     4     5   ar
     9     5     7    1
    10     7     8    2
    11     7     9    2
    12     7    10    1
    13    10    12    1
    14    12    13   ar
    15    13    14   ar
    16    14    15   ar
    17    15    16   ar
    18    16    17   ar
    19     5     6   ar
    20    21    22   am
    21    22    23    1
    22     6     1   ar
    23    17    12   ar
    24    10    11    1
    25    22    24    1
    26    23    25    1
@<TRIPOS>MOLECULE
*****
 25 26 0 0 0
SMALL
GASTEIGER

@<TRIPOS>ATOM
      1 C         139.7100  140.0964  167.9688 C.ar    1  UNL1        0.0015
      2 C         138.3789  139.4050  167.9693 C.ar    1  UNL1        0.0001
      3 C         137.9643  138.5753  166.7905 C.ar    1  UNL1        0.0014
      4 C         138.8807  138.4371  165.6111 C.ar    1  UNL1        0.0202
      5 C         140.2118  139.1286  165.6106 C.ar    1  UNL1        0.1252
      6 C         140.6264  139.9582  166.7894 C.ar    1  UNL1        0.0202
      7 S         141.1283  138.9904  164.4312 S.O2    1  UNL1        0.0736
      8 O         141.6413  137.6929  164.9818 O.2     1  UNL1       -0.1499
      9 O         140.6153  140.2879  163.8805 O.2     1  UNL1       -0.1499
     10 N         142.0448  138.8522  163.2518 N.pl3   1  UNL1       -0.2150
     11 H         141.8884  138.1429  162.5873 H       1  UNL1        0.1737
     12 C         143.1995  139.7949  163.0848 C.ar    1  UNL1        0.0648
     13 C         143.3317  140.6040  161.8286 C.ar    1  UNL1        0.0159
     14 C         144.4864  141.5466  161.6616 C.ar    1  UNL1        0.0013
     15 C         145.5091  141.6803  162.7509 C.ar    1  UNL1        0.0001
     16 C         145.3769  140.8713  164.0070 C.ar    1  UNL1        0.0013
     17 C         144.2221  139.9286  164.1740 C.ar    1  UNL1        0.0159
     18 C         141.5220  141.4649  169.2313 C.2     1  UNL1        0.0598
     19 C         140.1246  140.9261  169.1477 C.2     1  UNL1        0.0048
     20 O         141.2330  142.1338  171.7251 O.2     1  UNL1       -0.2681
     21 C         141.9366  142.2945  170.4102 C.2     1  UNL1        0.2679
     22 N         143.0550  143.2850  170.2741 N.am    1  UNL1       -0.1934
     23 O         143.4696  144.1146  171.4530 O.3     1  UNL1       -0.2949
     24 H         143.5168  143.3905  169.4111 H       1  UNL1        0.1825
     25 H         142.9177  143.8883  172.2178 H       1  UNL1        0.2414
@<TRIPOS>BOND
     1    20    21    2
     2    21    18    1
     3    18    19    2
     4    19     1    1
     5     1     2   ar
     6     2     3   ar
     7     3     4   ar
     8     4     5   ar
     9     5     7    1
    10     7     8    2
    11     7     9    2
    12     7    10    1
    13    10    12    1
    14    12    13   ar
    15    13    14   ar
    16    14    15   ar
    17    15    16   ar
    18    16    17   ar
    19     5     6   ar
    20    21    22   am
    21    22    23    1
    22     6     1   ar
    23    17    12   ar
    24    10    11    1
    25    22    24    1
    26    23    25    1
@<TRIPOS>MOLECULE
*****
 25 26 0 0 0
SMALL
GASTEIGER

@<TRIPOS>ATOM
      1 C         139.0116  139.2167  166.0935 C.ar    1  UNL1        0.0015
      2 C         138.6569  137.8652  165.5479 C.ar    1  UNL1        0.0001
      3 C         138.8539  137.5694  164.0906 C.ar    1  UNL1        0.0014
      4 C         139.4058  138.6249  163.1789 C.ar    1  UNL1        0.0202
      5 C         139.7606  139.9764  163.7245 C.ar    1  UNL1        0.1252
      6 C         139.5635  140.2722  165.1818 C.ar    1  UNL1        0.0202
      7 S         140.3125  141.0320  162.8128 S.O2    1  UNL1        0.0736
      8 O         139.0163  141.7822  162.8968 O.2     1  UNL1       -0.1499
      9 O         141.6086  140.2818  162.7289 O.2     1  UNL1       -0.1499
     10 N         140.8644  142.0876  161.9012 N.pl3   1  UNL1       -0.2150
     11 H         140.5997  142.1067  160.9531 H       1  UNL1        0.1737
     12 C         141.8196  143.1141  162.4340 C.ar    1  UNL1        0.0648
     13 C         141.3318  144.1754  163.3752 C.ar    1  UNL1        0.0159
     14 C         142.2870  145.2019  163.9080 C.ar    1  UNL1        0.0013
     15 C         143.7300  145.1671  163.4996 C.ar    1  UNL1        0.0001
     16 C         144.2177  144.1058  162.5585 C.ar    1  UNL1        0.0013
     17 C         143.2625  143.0793  162.0257 C.ar    1  UNL1        0.0159
     18 C         139.9633  140.0101  168.3771 C.2     1  UNL1        0.0598
     19 C         138.8146  139.5125  167.5507 C.2     1  UNL1        0.0048
     20 O         138.4347  140.7887  170.3282 O.2     1  UNL1       -0.2681
     21 C         139.7662  140.3059  169.8343 C.2     1  UNL1        0.2679
     22 N         140.9007  140.1191  170.7977 N.am    1  UNL1       -0.1934
     23 O         140.7036  140.4149  172.2550 O.3     1  UNL1       -0.2949
     24 H         141.7747  139.8022  170.4735 H       1  UNL1        0.1825
     25 H         139.7931  140.7144  172.4038 H       1  UNL1        0.2414
@<TRIPOS>BOND
     1    20    21    2
     2    21    18    1
     3    18    19    2
     4    19     1    1
     5     1     2   ar
     6     2     3   ar
     7     3     4   ar
     8     4     5   ar
     9     5     7    1
    10     7     8    2
    11     7     9    2
    12     7    10    1
    13    10    12    1
    14    12    13   ar
    15    13    14   ar
    16    14    15   ar
    17    15    16   ar
    18    16    17   ar
    19     5     6   ar
    20    21    22   am
    21    22    23    1
    22     6     1   ar
    23    17    12   ar
    24    10    11    1
    25    22    24    1
    26    23    25    1
@<TRIPOS>MOLECULE
*****
 25 26 0 0 0
SMALL
GASTEIGER

@<TRIPOS>ATOM
      1 C         140.1761  140.4865  167.0508 C.ar    1  UNL1        0.0015
      2 C         139.2281  139.3540  166.7888 C.ar    1  UNL1        0.0001
      3 C         138.1894  139.4788  165.7139 C.ar    1  UNL1        0.0014
      4 C         138.0986  140.7362  164.9010 C.ar    1  UNL1        0.0202
      5 C         139.0466  141.8687  165.1630 C.ar    1  UNL1        0.1252
      6 C         140.0853  141.7439  166.2379 C.ar    1  UNL1        0.0202
      7 S         138.9558  143.1261  164.3502 S.O2    1  UNL1        0.0736
      8 O         140.4240  143.3606  164.5488 O.2     1  UNL1       -0.1499
      9 O         137.4877  142.8917  164.1515 O.2     1  UNL1       -0.1499
     10 N         138.8650  144.3835  163.5373 N.pl3   1  UNL1       -0.2150
     11 H         138.5044  145.2057  163.9411 H       1  UNL1        0.1737
     12 C         139.3237  144.3881  162.1092 C.ar    1  UNL1        0.0648
     13 C         139.9940  145.6037  161.5406 C.ar    1  UNL1        0.0159
     14 C         140.4527  145.6083  160.1125 C.ar    1  UNL1        0.0013
     15 C         140.2411  144.3973  159.2529 C.ar    1  UNL1        0.0001
     16 C         139.5708  143.1818  159.8214 C.ar    1  UNL1        0.0013
     17 C         139.1121  143.1772  161.2496 C.ar    1  UNL1        0.0159
     18 C         140.8219  140.4931  169.5673 C.2     1  UNL1        0.0598
     19 C         141.2149  140.3617  168.1257 C.2     1  UNL1        0.0048
     20 O         141.7520  141.1939  171.8897 O.2     1  UNL1       -0.2681
     21 C         141.8607  140.3682  170.6422 C.2     1  UNL1        0.2679
     22 N         143.0082  139.4177  170.4695 N.am    1  UNL1       -0.1934
     23 O         144.0469  139.2928  171.5444 O.3     1  UNL1       -0.2949
     24 H         143.0795  138.8758  169.6507 H       1  UNL1        0.1825
     25 H         143.8286  139.8912  172.2760 H       1  UNL1        0.2414
@<TRIPOS>BOND
     1    20    21    2
     2    21    18    1
     3    18    19    2
     4    19     1    1
     5     1     2   ar
     6     2     3   ar
     7     3     4   ar
     8     4     5   ar
     9     5     7    1
    10     7     8    2
    11     7     9    2
    12     7    10    1
    13    10    12    1
    14    12    13   ar
    15    13    14   ar
    16    14    15   ar
    17    15    16   ar
    18    16    17   ar
    19     5     6   ar
    20    21    22   am
    21    22    23    1
    22     6     1   ar
    23    17    12   ar
    24    10    11    1
    25    22    24    1
    26    23    25    1
@<TRIPOS>MOLECULE
*****
 25 26 0 0 0
SMALL
GASTEIGER

@<TRIPOS>ATOM
      1 C         141.3632  140.2246  167.2973 C.ar    1  UNL1        0.0015
      2 C         142.7204  139.6925  167.6504 C.ar    1  UNL1        0.0001
      3 C         143.3426  138.6118  166.8168 C.ar    1  UNL1        0.0014
      4 C         142.6075  138.0631  165.6300 C.ar    1  UNL1        0.0202
      5 C         141.2502  138.5951  165.2768 C.ar    1  UNL1        0.1252
      6 C         140.6281  139.6759  166.1105 C.ar    1  UNL1        0.0202
      7 S         140.5151  138.0464  164.0900 S.O2    1  UNL1        0.0736
      8 O         139.4039  137.5910  164.9888 O.2     1  UNL1       -0.1499
      9 O         141.6262  138.5019  163.1912 O.2     1  UNL1       -0.1499
     10 N         139.7800  137.4978  162.9032 N.pl3   1  UNL1       -0.2150
     11 H         139.6853  136.5244  162.7896 H       1  UNL1        0.1737
     12 C         139.1891  138.4321  161.8893 C.ar    1  UNL1        0.0648
     13 C         138.2130  139.4864  162.3202 C.ar    1  UNL1        0.0159
     14 C         137.6221  140.4208  161.3064 C.ar    1  UNL1        0.0013
     15 C         138.0073  140.3007  159.8616 C.ar    1  UNL1        0.0001
     16 C         138.9834  139.2464  159.4308 C.ar    1  UNL1        0.0013
     17 C         139.5743  138.3121  160.4446 C.ar    1  UNL1        0.0159
     18 C         141.2366  141.5569  169.5241 C.2     1  UNL1        0.0598
     19 C         140.7411  141.3053  168.1309 C.2     1  UNL1        0.0048
     20 O         140.3539  142.4036  171.8162 O.2     1  UNL1       -0.2681
     21 C         140.6144  142.6376  170.3577 C.2     1  UNL1        0.2679
     22 N         140.2529  143.9525  169.7328 N.am    1  UNL1       -0.1934
     23 O         139.6307  145.0332  170.5664 O.3     1  UNL1       -0.2949
     24 H         140.4239  144.1061  168.7755 H       1  UNL1        0.1825
     25 H         139.5322  144.7210  171.4794 H       1  UNL1        0.2414
@<TRIPOS>BOND
     1    20    21    2
     2    21    18    1
     3    18    19    2
     4    19     1    1
     5     1     2   ar
     6     2     3   ar
     7     3     4   ar
     8     4     5   ar
     9     5     7    1
    10     7     8    2
    11     7     9    2
    12     7    10    1
    13    10    12    1
    14    12    13   ar
    15    13    14   ar
    16    14    15   ar
    17    15    16   ar
    18    16    17   ar
    19     5     6   ar
    20    21    22   am
    21    22    23    1
    22     6     1   ar
    23    17    12   ar
    24    10    11    1
    25    22    24    1
    26    23    25    1
@<TRIPOS>MOLECULE
*****
 25 26 0 0 0
SMALL
GASTEIGER

@<TRIPOS>ATOM
      1 C         139.9182  142.7870  166.0319 C.ar    1  UNL1        0.0015
      2 C         139.3346  144.1587  165.8650 C.ar    1  UNL1        0.0001
      3 C         138.3182  144.4159  164.7923 C.ar    1  UNL1        0.0014
      4 C         137.8854  143.3015  163.8865 C.ar    1  UNL1        0.0202
      5 C         138.4690  141.9298  164.0533 C.ar    1  UNL1        0.1252
      6 C         139.4854  141.6726  165.1260 C.ar    1  UNL1        0.0202
      7 S         138.0362  140.8153  163.1474 S.O2    1  UNL1        0.0736
      8 O         139.2323  140.0119  163.5642 O.2     1  UNL1       -0.1499
      9 O         136.8400  141.6186  162.7306 O.2     1  UNL1       -0.1499
     10 N         137.6034  139.7008  162.2416 N.pl3   1  UNL1       -0.2150
     11 H         136.9047  139.0719  162.5340 H       1  UNL1        0.1737
     12 C         138.2351  139.5445  160.8901 C.ar    1  UNL1        0.0648
     13 C         137.8927  140.5016  159.7870 C.ar    1  UNL1        0.0159
     14 C         138.5244  140.3454  158.4355 C.ar    1  UNL1        0.0013
     15 C         139.4985  139.2320  158.1871 C.ar    1  UNL1        0.0001
     16 C         139.8408  138.2749  159.2902 C.ar    1  UNL1        0.0013
     17 C         139.2091  138.4312  160.6417 C.ar    1  UNL1        0.0159
     18 C         140.5255  142.5566  168.5474 C.2     1  UNL1        0.0598
     19 C         140.9347  142.5298  167.1046 C.2     1  UNL1        0.0048
     20 O         142.8809  141.7255  169.2626 O.2     1  UNL1       -0.2681
     21 C         141.5419  142.2994  169.6202 C.2     1  UNL1        0.2679
     22 N         141.2194  142.6161  171.0505 N.am    1  UNL1       -0.1934
     23 O         142.2358  142.3589  172.1232 O.3     1  UNL1       -0.2949
     24 H         140.3406  142.9928  171.2851 H       1  UNL1        0.1825
     25 H         143.0397  141.9899  171.7251 H       1  UNL1        0.2414
@<TRIPOS>BOND
     1    20    21    2
     2    21    18    1
     3    18    19    2
     4    19     1    1
     5     1     2   ar
     6     2     3   ar
     7     3     4   ar
     8     4     5   ar
     9     5     7    1
    10     7     8    2
    11     7     9    2
    12     7    10    1
    13    10    12    1
    14    12    13   ar
    15    13    14   ar
    16    14    15   ar
    17    15    16   ar
    18    16    17   ar
    19     5     6   ar
    20    21    22   am
    21    22    23    1
    22     6     1   ar
    23    17    12   ar
    24    10    11    1
    25    22    24    1
    26    23    25    1
@<TRIPOS>MOLECULE
*****
 25 26 0 0 0
SMALL
GASTEIGER

@<TRIPOS>ATOM
      1 C         142.3365  140.0098  167.5900 C.ar    1  UNL1        0.0015
      2 C         143.0829  138.7095  167.6338 C.ar    1  UNL1        0.0001
      3 C         143.8491  138.2436  166.4313 C.ar    1  UNL1        0.0014
      4 C         143.8689  139.0781  165.1851 C.ar    1  UNL1        0.0202
      5 C         143.1225  140.3784  165.1412 C.ar    1  UNL1        0.1252
      6 C         142.3563  140.8443  166.3437 C.ar    1  UNL1        0.0202
      7 S         143.1423  141.2129  163.8949 S.O2    1  UNL1        0.0736
      8 O         141.7329  140.7969  163.5939 O.2     1  UNL1       -0.1499
      9 O         144.5516  141.6289  164.1959 O.2     1  UNL1       -0.1499
     10 N         143.1621  142.0475  162.6487 N.pl3   1  UNL1       -0.2150
     11 H         143.7453  141.7953  161.8967 H       1  UNL1        0.1737
     12 C         142.2933  143.2661  162.5482 C.ar    1  UNL1        0.0648
     13 C         141.4615  143.4950  161.3211 C.ar    1  UNL1        0.0159
     14 C         140.5927  144.7137  161.2206 C.ar    1  UNL1        0.0013
     15 C         140.5558  145.7034  162.3472 C.ar    1  UNL1        0.0001
     16 C         141.3876  145.4745  163.5742 C.ar    1  UNL1        0.0013
     17 C         142.2564  144.2558  163.6747 C.ar    1  UNL1        0.0159
     18 C         141.7500  141.8756  169.3001 C.2     1  UNL1        0.0598
     19 C         141.5703  140.4757  168.7924 C.2     1  UNL1        0.0048
     20 O         141.5267  142.0962  171.8792 O.2     1  UNL1       -0.2681
     21 C         140.9838  142.3415  170.5026 C.2     1  UNL1        0.2679
     22 N         139.6746  143.0527  170.3284 N.am    1  UNL1       -0.1934
     23 O         138.9084  143.5185  171.5308 O.3     1  UNL1       -0.2949
     24 H         139.3182  143.2137  169.4249 H       1  UNL1        0.1825
     25 H         139.3952  143.2823  172.3359 H       1  UNL1        0.2414
@<TRIPOS>BOND
     1    20    21    2
     2    21    18    1
     3    18    19    2
     4    19     1    1
     5     1     2   ar
     6     2     3   ar
     7     3     4   ar
     8     4     5   ar
     9     5     7    1
    10     7     8    2
    11     7     9    2
    12     7    10    1
    13    10    12    1
    14    12    13   ar
    15    13    14   ar
    16    14    15   ar
    17    15    16   ar
    18    16    17   ar
    19     5     6   ar
    20    21    22   am
    21    22    23    1
    22     6     1   ar
    23    17    12   ar
    24    10    11    1
    25    22    24    1
    26    23    25    1
@<TRIPOS>MOLECULE
*****
 25 26 0 0 0
SMALL
GASTEIGER

@<TRIPOS>ATOM
      1 C         141.9034  142.2068  166.1973 C.ar    1  UNL1        0.0015
      2 C         143.3678  142.3238  166.5001 C.ar    1  UNL1        0.0001
      3 C         144.2307  143.2430  165.6874 C.ar    1  UNL1        0.0014
      4 C         143.6291  144.0452  164.5718 C.ar    1  UNL1        0.0202
      5 C         142.1647  143.9283  164.2690 C.ar    1  UNL1        0.1252
      6 C         141.3018  143.0091  165.0818 C.ar    1  UNL1        0.0202
      7 S         141.5630  144.7306  163.1534 S.O2    1  UNL1        0.0736
      8 O         140.3387  144.9703  163.9861 O.2     1  UNL1       -0.1499
      9 O         142.7874  144.4908  162.3208 O.2     1  UNL1       -0.1499
     10 N         140.9615  145.5328  162.0379 N.pl3   1  UNL1       -0.2150
     11 H         140.8873  146.5111  162.1195 H       1  UNL1        0.1737
     12 C         140.4729  144.8445  160.7979 C.ar    1  UNL1        0.0648
     13 C         139.6381  143.6032  160.9086 C.ar    1  UNL1        0.0159
     14 C         139.1495  142.9149  159.6686 C.ar    1  UNL1        0.0013
     15 C         139.4959  143.4679  158.3179 C.ar    1  UNL1        0.0001
     16 C         140.3307  144.7092  158.2073 C.ar    1  UNL1        0.0013
     17 C         140.8192  145.3975  159.4472 C.ar    1  UNL1        0.0159
     18 C         141.1552  141.2784  168.5056 C.2     1  UNL1        0.0598
     19 C         141.0405  141.2876  167.0100 C.2     1  UNL1        0.0048
     20 O         139.0510  139.7693  168.7175 O.2     1  UNL1       -0.2681
     21 C         140.2923  140.3592  169.3183 C.2     1  UNL1        0.2679
     22 N         140.6709  140.0299  170.7320 N.am    1  UNL1       -0.1934
     23 O         139.8080  139.1108  171.5447 O.3     1  UNL1       -0.2949
     24 H         141.4856  140.4171  171.1264 H       1  UNL1        0.1825
     25 H         139.0518  138.8209  171.0108 H       1  UNL1        0.2414
@<TRIPOS>BOND
     1    20    21    2
     2    21    18    1
     3    18    19    2
     4    19     1    1
     5     1     2   ar
     6     2     3   ar
     7     3     4   ar
     8     4     5   ar
     9     5     7    1
    10     7     8    2
    11     7     9    2
    12     7    10    1
    13    10    12    1
    14    12    13   ar
    15    13    14   ar
    16    14    15   ar
    17    15    16   ar
    18    16    17   ar
    19     5     6   ar
    20    21    22   am
    21    22    23    1
    22     6     1   ar
    23    17    12   ar
    24    10    11    1
    25    22    24    1
    26    23    25    1
