@<TRIPOS>MOLECULE
*****
 34 37 0 0 0
SMALL
GASTEIGER

@<TRIPOS>ATOM
      1 C         139.8256  142.8353  164.8848 C.3     1  UNL1        0.0188
      2 C         138.5139  142.2916  164.4013 C.3     1  UNL1        0.0188
      3 C         138.0675  140.9234  164.8240 C.3     1  UNL1        0.0724
      4 N         138.9328  140.0989  165.7303 N.3     1  UNL1       -0.2691
      5 C         140.2445  140.6426  166.2138 C.3     1  UNL1        0.0724
      6 C         140.6909  142.0108  165.7911 C.3     1  UNL1        0.0188
      7 C         140.2719  144.2036  164.4620 C.3     1  UNL1        0.0721
      8 C         141.3264  144.9970  160.1599 C.3     1  UNL1        0.1687
      9 C         142.1176  144.0007  160.9546 C.3     1  UNL1        0.0609
     10 C         141.7661  143.7363  162.3886 C.3     1  UNL1        0.0758
     11 N         140.6234  144.4680  163.0280 N.3     1  UNL1       -0.2724
     12 C         139.8322  145.4643  162.2333 C.3     1  UNL1        0.0758
     13 C         140.1837  145.7288  160.7992 C.3     1  UNL1        0.0609
     14 O         141.6779  145.2614  158.7258 O.3     1  UNL1       -0.4794
     15 C         140.5977  142.6163  157.8112 C.3     1  UNL1        0.0342
     16 C         140.0727  143.8880  157.2136 C.ar    1  UNL1        0.0129
     17 C         139.0076  143.8371  156.1586 C.ar    1  UNL1        0.0101
     18 C         138.4826  145.1088  155.5610 C.ar    1  UNL1        0.0576
     19 CL        137.4174  145.0579  154.5060 Cl      1  UNL1       -0.0823
     20 C         139.0226  146.4314  156.0183 C.ar    1  UNL1        0.0145
     21 C         140.0877  146.4822  157.0732 C.ar    1  UNL1        0.0374
     22 C         140.6127  145.2105  157.6709 C.ar    1  UNL1        0.1344
     23 C         138.4865  138.7307  166.1531 C.3     1  UNL1        0.0987
     24 C         137.7020  138.5557  167.4195 C.2     1  UNL1        0.0652
     25 O         136.4900  137.6721  167.4350 O.co2   1  UNL1       -0.5478
     26 O         138.1295  139.2644  168.6706 O.co2   1  UNL1       -0.5478
     27 C         138.8246  137.5374  165.3094 C.3     1  UNL1        0.0480
     28 C         139.5217  137.7222  163.9942 C.ar    1  UNL1       -0.0203
     29 C         141.0198  137.6851  163.9276 C.ar    1  UNL1       -0.0019
     30 C         141.7169  137.8699  162.6123 C.ar    1  UNL1        0.0293
     31 C         140.9160  138.0916  161.3636 C.ar    1  UNL1        0.1401
     32 F         141.6131  138.2763  160.0484 F       1  UNL1       -0.2042
     33 C         139.4179  138.1287  161.4302 C.ar    1  UNL1        0.0293
     34 C         138.7208  137.9439  162.7454 C.ar    1  UNL1       -0.0019
@<TRIPOS>UNITY_ATOM_ATTR
25 1
charge -1
@<TRIPOS>BOND
     1    15    16    1
     2    16    17   ar
     3    17    18   ar
     4    18    19    1
     5    18    20   ar
     6    20    21   ar
     7    21    22   ar
     8    22    14    1
     9    14     8    1
    10     8     9    1
    11     9    10    1
    12    10    11    1
    13    11     7    1
    14     7     1    1
    15     1     2    1
    16     2     3    1
    17     3     4    1
    18     4    23    1
    19    23    27    1
    20    27    28    1
    21    28    29   ar
    22    29    30   ar
    23    30    31   ar
    24    31    32    1
    25    31    33   ar
    26    33    34   ar
    27    23    24    1
    28    24    25   ar
    29    24    26   ar
    30     4     5    1
    31     5     6    1
    32    11    12    1
    33    12    13    1
    34    22    16   ar
    35    13     8    1
    36     6     1    1
    37    34    28   ar
@<TRIPOS>MOLECULE
*****
 34 37 0 0 0
SMALL
GASTEIGER

@<TRIPOS>ATOM
      1 C         143.6271  140.6110  164.9420 C.3     1  UNL1        0.0188
      2 C         143.3936  139.2599  165.5503 C.3     1  UNL1        0.0188
      3 C         142.2114  139.0347  166.4456 C.3     1  UNL1        0.0724
      4 N         141.2627  140.1605  166.7326 N.3     1  UNL1       -0.2691
      5 C         141.4962  141.5116  166.1243 C.3     1  UNL1        0.0724
      6 C         142.6784  141.7368  165.2290 C.3     1  UNL1        0.0188
      7 C         144.8094  140.8362  164.0467 C.3     1  UNL1        0.0721
      8 C         144.1995  141.4941  159.6370 C.3     1  UNL1        0.1687
      9 C         143.9690  140.1364  160.2318 C.3     1  UNL1        0.0609
     10 C         144.1723  139.9171  161.7016 C.3     1  UNL1        0.0758
     11 N         144.6061  141.0554  162.5768 N.3     1  UNL1       -0.2724
     12 C         144.8366  142.4131  161.9822 C.3     1  UNL1        0.0758
     13 C         144.6333  142.6324  160.5122 C.3     1  UNL1        0.0609
     14 O         143.9962  141.7133  158.1672 O.3     1  UNL1       -0.4794
     15 C         144.0500  139.8527  155.8144 C.3     1  UNL1        0.0342
     16 C         145.2012  140.7819  156.0623 C.ar    1  UNL1        0.0129
     17 C         146.3793  140.7808  155.1339 C.ar    1  UNL1        0.0101
     18 C         147.5304  141.7100  155.3817 C.ar    1  UNL1        0.0576
     19 CL        148.7086  141.7088  154.4532 Cl      1  UNL1       -0.0823
     20 C         147.5035  142.6403  156.5581 C.ar    1  UNL1        0.0145
     21 C         146.3255  142.6414  157.4865 C.ar    1  UNL1        0.0374
     22 C         145.1743  141.7122  157.2386 C.ar    1  UNL1        0.1344
     23 C         140.0804  139.9354  167.6280 C.3     1  UNL1        0.0987
     24 C         140.1745  140.2578  169.0898 C.2     1  UNL1        0.0652
     25 O         141.4134  140.9022  169.6375 O.co2   1  UNL1       -0.5478
     26 O         139.0297  139.9357  170.0041 O.co2   1  UNL1       -0.5478
     27 C         138.8040  139.3878  167.0613 C.3     1  UNL1        0.0480
     28 C         138.6605  139.2007  165.5800 C.ar    1  UNL1       -0.0203
     29 C         138.9846  137.8754  164.9565 C.ar    1  UNL1       -0.0019
     30 C         138.8410  137.6884  163.4751 C.ar    1  UNL1        0.0293
     31 C         138.3735  138.8265  162.6173 C.ar    1  UNL1        0.1401
     32 F         138.2299  138.6394  161.1360 F       1  UNL1       -0.2042
     33 C         138.0494  140.1518  163.2408 C.ar    1  UNL1        0.0293
     34 C         138.1929  140.3389  164.7221 C.ar    1  UNL1       -0.0019
@<TRIPOS>UNITY_ATOM_ATTR
25 1
charge -1
@<TRIPOS>BOND
     1    15    16    1
     2    16    17   ar
     3    17    18   ar
     4    18    19    1
     5    18    20   ar
     6    20    21   ar
     7    21    22   ar
     8    22    14    1
     9    14     8    1
    10     8     9    1
    11     9    10    1
    12    10    11    1
    13    11     7    1
    14     7     1    1
    15     1     2    1
    16     2     3    1
    17     3     4    1
    18     4    23    1
    19    23    27    1
    20    27    28    1
    21    28    29   ar
    22    29    30   ar
    23    30    31   ar
    24    31    32    1
    25    31    33   ar
    26    33    34   ar
    27    23    24    1
    28    24    25   ar
    29    24    26   ar
    30     4     5    1
    31     5     6    1
    32    11    12    1
    33    12    13    1
    34    22    16   ar
    35    13     8    1
    36     6     1    1
    37    34    28   ar
@<TRIPOS>MOLECULE
*****
 34 37 0 0 0
SMALL
GASTEIGER

@<TRIPOS>ATOM
      1 C         138.0865  142.4275  163.3866 C.3     1  UNL1        0.0188
      2 C         138.8055  142.4639  164.7025 C.3     1  UNL1        0.0188
      3 C         138.9464  141.2111  165.5152 C.3     1  UNL1        0.0724
      4 N         138.3683  139.9217  165.0118 N.3     1  UNL1       -0.2691
      5 C         137.6494  139.8852  163.6958 C.3     1  UNL1        0.0724
      6 C         137.5085  141.1381  162.8832 C.3     1  UNL1        0.0188
      7 C         137.9457  143.6804  162.5739 C.3     1  UNL1        0.0721
      8 C         141.0251  144.6969  159.4540 C.3     1  UNL1        0.1687
      9 C         140.9216  145.5220  160.7025 C.3     1  UNL1        0.0609
     10 C         139.8951  145.1832  161.7424 C.3     1  UNL1        0.0758
     11 N         138.9721  144.0193  161.5340 N.3     1  UNL1       -0.2724
     12 C         139.0756  143.1942  160.2856 C.3     1  UNL1        0.0758
     13 C         140.1021  143.5330  159.2456 C.3     1  UNL1        0.0609
     14 O         142.0516  145.0357  158.4141 O.3     1  UNL1       -0.4794
     15 C         142.0338  144.5558  155.4528 C.3     1  UNL1        0.0342
     16 C         142.8984  143.7140  156.3438 C.ar    1  UNL1        0.0129
     17 C         143.7541  142.6323  155.7543 C.ar    1  UNL1        0.0101
     18 C         144.6187  141.7905  156.6453 C.ar    1  UNL1        0.0576
     19 CL        145.4744  140.7088  156.0556 Cl      1  UNL1       -0.0823
     20 C         144.6276  142.0305  158.1259 C.ar    1  UNL1        0.0145
     21 C         143.7719  143.1122  158.7155 C.ar    1  UNL1        0.0374
     22 C         142.9073  143.9540  157.8245 C.ar    1  UNL1        0.1344
     23 C         138.5092  138.6687  165.8245 C.3     1  UNL1        0.0987
     24 C         137.8586  138.5720  167.1725 C.2     1  UNL1        0.0652
     25 O         138.4331  139.3212  168.3381 O.co2   1  UNL1       -0.5478
     26 O         136.6333  137.7261  167.3550 O.co2   1  UNL1       -0.5478
     27 C         139.3007  137.5126  165.2890 C.3     1  UNL1        0.0480
     28 C         140.5304  137.7621  164.4670 C.ar    1  UNL1       -0.0203
     29 C         140.5247  137.4590  162.9979 C.ar    1  UNL1       -0.0019
     30 C         141.7544  137.7085  162.1759 C.ar    1  UNL1        0.0293
     31 C         142.9897  138.2610  162.8230 C.ar    1  UNL1        0.1401
     32 F         144.2193  138.5105  162.0010 F       1  UNL1       -0.2042
     33 C         142.9954  138.5641  164.2920 C.ar    1  UNL1        0.0293
     34 C         141.7657  138.3146  165.1140 C.ar    1  UNL1       -0.0019
@<TRIPOS>UNITY_ATOM_ATTR
25 1
charge -1
@<TRIPOS>BOND
     1    15    16    1
     2    16    17   ar
     3    17    18   ar
     4    18    19    1
     5    18    20   ar
     6    20    21   ar
     7    21    22   ar
     8    22    14    1
     9    14     8    1
    10     8     9    1
    11     9    10    1
    12    10    11    1
    13    11     7    1
    14     7     1    1
    15     1     2    1
    16     2     3    1
    17     3     4    1
    18     4    23    1
    19    23    27    1
    20    27    28    1
    21    28    29   ar
    22    29    30   ar
    23    30    31   ar
    24    31    32    1
    25    31    33   ar
    26    33    34   ar
    27    23    24    1
    28    24    25   ar
    29    24    26   ar
    30     4     5    1
    31     5     6    1
    32    11    12    1
    33    12    13    1
    34    22    16   ar
    35    13     8    1
    36     6     1    1
    37    34    28   ar
@<TRIPOS>MOLECULE
*****
 34 37 0 0 0
SMALL
GASTEIGER

@<TRIPOS>ATOM
      1 C         143.6467  140.5277  164.8807 C.3     1  UNL1        0.0188
      2 C         142.7556  141.6985  165.1725 C.3     1  UNL1        0.0188
      3 C         141.5816  141.5366  166.0920 C.3     1  UNL1        0.0724
      4 N         141.2988  140.2040  166.7197 N.3     1  UNL1       -0.2691
      5 C         142.1899  139.0332  166.4279 C.3     1  UNL1        0.0724
      6 C         143.3639  139.1951  165.5084 C.3     1  UNL1        0.0188
      7 C         144.8207  140.6896  163.9612 C.3     1  UNL1        0.0721
      8 C         144.1563  141.4052  159.5684 C.3     1  UNL1        0.1687
      9 C         144.5876  142.5352  160.4556 C.3     1  UNL1        0.0609
     10 C         144.8091  142.2967  161.9198 C.3     1  UNL1        0.0758
     11 N         144.5993  140.9281  162.4969 N.3     1  UNL1       -0.2724
     12 C         144.1680  139.7981  161.6098 C.3     1  UNL1        0.0758
     13 C         143.9465  140.0366  160.1455 C.3     1  UNL1        0.0609
     14 O         143.9348  141.6437  158.1042 O.3     1  UNL1       -0.4794
     15 C         143.9444  139.8733  155.6822 C.3     1  UNL1        0.0342
     16 C         145.1073  140.7815  155.9520 C.ar    1  UNL1        0.0129
     17 C         146.2751  140.8045  155.0108 C.ar    1  UNL1        0.0101
     18 C         147.4380  141.7126  155.2806 C.ar    1  UNL1        0.0576
     19 CL        148.6058  141.7356  154.3393 Cl      1  UNL1       -0.0823
     20 C         147.4332  142.5978  156.4915 C.ar    1  UNL1        0.0145
     21 C         146.2655  142.5748  157.4327 C.ar    1  UNL1        0.0374
     22 C         145.1026  141.6666  157.1629 C.ar    1  UNL1        0.1344
     23 C         140.1247  140.0421  167.6393 C.3     1  UNL1        0.0987
     24 C         140.2404  140.4410  169.0806 C.2     1  UNL1        0.0652
     25 O         140.0387  141.8724  169.4811 O.co2   1  UNL1       -0.5478
     26 O         140.5577  139.4085  170.1215 O.co2   1  UNL1       -0.5478
     27 C         138.8351  139.4812  167.1174 C.3     1  UNL1        0.0480
     28 C         138.6557  139.2578  165.6451 C.ar    1  UNL1       -0.0203
     29 C         138.1500  140.3692  164.7739 C.ar    1  UNL1       -0.0019
     30 C         137.9706  140.1456  163.3015 C.ar    1  UNL1        0.0293
     31 C         138.2970  138.8107  162.7003 C.ar    1  UNL1        0.1401
     32 F         138.1176  138.5872  161.2280 F       1  UNL1       -0.2042
     33 C         138.8028  137.6993  163.5715 C.ar    1  UNL1        0.0293
     34 C         138.9821  137.9228  165.0439 C.ar    1  UNL1       -0.0019
@<TRIPOS>UNITY_ATOM_ATTR
25 1
charge -1
@<TRIPOS>BOND
     1    15    16    1
     2    16    17   ar
     3    17    18   ar
     4    18    19    1
     5    18    20   ar
     6    20    21   ar
     7    21    22   ar
     8    22    14    1
     9    14     8    1
    10     8     9    1
    11     9    10    1
    12    10    11    1
    13    11     7    1
    14     7     1    1
    15     1     2    1
    16     2     3    1
    17     3     4    1
    18     4    23    1
    19    23    27    1
    20    27    28    1
    21    28    29   ar
    22    29    30   ar
    23    30    31   ar
    24    31    32    1
    25    31    33   ar
    26    33    34   ar
    27    23    24    1
    28    24    25   ar
    29    24    26   ar
    30     4     5    1
    31     5     6    1
    32    11    12    1
    33    12    13    1
    34    22    16   ar
    35    13     8    1
    36     6     1    1
    37    34    28   ar
@<TRIPOS>MOLECULE
*****
 34 37 0 0 0
SMALL
GASTEIGER

@<TRIPOS>ATOM
      1 C         139.6440  142.8717  164.9423 C.3     1  UNL1        0.0188
      2 C         138.3914  142.2583  164.3901 C.3     1  UNL1        0.0188
      3 C         137.9717  140.8866  164.8285 C.3     1  UNL1        0.0724
      4 N         138.8045  140.1283  165.8190 N.3     1  UNL1       -0.2691
      5 C         140.0571  140.7416  166.3712 C.3     1  UNL1        0.0724
      6 C         140.4768  142.1133  165.9328 C.3     1  UNL1        0.0188
      7 C         140.0637  144.2434  164.5038 C.3     1  UNL1        0.0721
      8 C         141.4787  144.9230  160.2865 C.3     1  UNL1        0.1687
      9 C         142.2322  143.9919  161.1896 C.3     1  UNL1        0.0609
     10 C         141.7605  143.7654  162.5954 C.3     1  UNL1        0.0758
     11 N         140.5354  144.4699  163.0981 N.3     1  UNL1       -0.2724
     12 C         139.7819  145.4009  162.1951 C.3     1  UNL1        0.0758
     13 C         140.2536  145.6275  160.7892 C.3     1  UNL1        0.0609
     14 O         141.9504  145.1495  158.8808 O.3     1  UNL1       -0.4794
     15 C         139.6848  144.1617  157.1804 C.3     1  UNL1        0.0342
     16 C         141.0233  143.4883  157.1113 C.ar    1  UNL1        0.0129
     17 C         141.2291  142.3211  156.1920 C.ar    1  UNL1        0.0101
     18 C         142.5677  141.6477  156.1228 C.ar    1  UNL1        0.0576
     19 CL        142.7735  140.4804  155.2034 Cl      1  UNL1       -0.0823
     20 C         143.7005  142.1416  156.9729 C.ar    1  UNL1        0.0145
     21 C         143.4947  143.3088  157.8922 C.ar    1  UNL1        0.0374
     22 C         142.1561  143.9822  157.9614 C.ar    1  UNL1        0.1344
     23 C         138.3848  138.7565  166.2575 C.3     1  UNL1        0.0987
     24 C         137.7065  138.5672  167.5819 C.2     1  UNL1        0.0652
     25 O         136.5516  137.6179  167.7041 O.co2   1  UNL1       -0.5478
     26 O         138.1832  139.3272  168.7841 O.co2   1  UNL1       -0.5478
     27 C         138.6434  137.5741  165.3715 C.3     1  UNL1        0.0480
     28 C         139.5280  137.7174  164.1686 C.ar    1  UNL1       -0.0203
     29 C         138.9214  137.9082  162.8100 C.ar    1  UNL1       -0.0019
     30 C         139.8060  138.0515  161.6071 C.ar    1  UNL1        0.0293
     31 C         141.2971  138.0042  161.7628 C.ar    1  UNL1        0.1401
     32 F         142.1817  138.1476  160.5599 F       1  UNL1       -0.2042
     33 C         141.9037  137.8135  163.1213 C.ar    1  UNL1        0.0293
     34 C         141.0192  137.6701  164.3242 C.ar    1  UNL1       -0.0019
@<TRIPOS>UNITY_ATOM_ATTR
25 1
charge -1
@<TRIPOS>BOND
     1    15    16    1
     2    16    17   ar
     3    17    18   ar
     4    18    19    1
     5    18    20   ar
     6    20    21   ar
     7    21    22   ar
     8    22    14    1
     9    14     8    1
    10     8     9    1
    11     9    10    1
    12    10    11    1
    13    11     7    1
    14     7     1    1
    15     1     2    1
    16     2     3    1
    17     3     4    1
    18     4    23    1
    19    23    27    1
    20    27    28    1
    21    28    29   ar
    22    29    30   ar
    23    30    31   ar
    24    31    32    1
    25    31    33   ar
    26    33    34   ar
    27    23    24    1
    28    24    25   ar
    29    24    26   ar
    30     4     5    1
    31     5     6    1
    32    11    12    1
    33    12    13    1
    34    22    16   ar
    35    13     8    1
    36     6     1    1
    37    34    28   ar
@<TRIPOS>MOLECULE
*****
 34 37 0 0 0
SMALL
GASTEIGER

@<TRIPOS>ATOM
      1 C         142.5503  142.4458  165.4223 C.3     1  UNL1        0.0188
      2 C         141.2424  143.0638  165.8191 C.3     1  UNL1        0.0188
      3 C         140.2676  142.2859  166.6525 C.3     1  UNL1        0.0724
      4 N         140.6007  140.8901  167.0891 N.3     1  UNL1       -0.2691
      5 C         141.9087  140.2722  166.6923 C.3     1  UNL1        0.0724
      6 C         142.8835  141.0500  165.8589 C.3     1  UNL1        0.0188
      7 C         143.5251  143.2238  164.5888 C.3     1  UNL1        0.0721
      8 C         143.2280  143.1251  160.0997 C.3     1  UNL1        0.1687
      9 C         142.2138  143.8853  160.9020 C.3     1  UNL1        0.0609
     10 C         142.3129  143.9182  162.3983 C.3     1  UNL1        0.0758
     11 N         143.4261  143.1909  163.0924 N.3     1  UNL1       -0.2724
     12 C         144.4402  142.4307  162.2902 C.3     1  UNL1        0.0758
     13 C         144.3412  142.3978  160.7938 C.3     1  UNL1        0.0609
     14 O         143.1289  143.0922  158.6033 O.3     1  UNL1       -0.4794
     15 C         140.5043  141.7697  158.0013 C.3     1  UNL1        0.0342
     16 C         140.7325  143.1984  157.6054 C.ar    1  UNL1        0.0129
     17 C         139.6484  143.9658  156.9085 C.ar    1  UNL1        0.0101
     18 C         139.8766  145.3945  156.5126 C.ar    1  UNL1        0.0576
     19 CL        138.7924  146.1620  155.8156 Cl      1  UNL1       -0.0823
     20 C         141.1888  146.0558  156.8136 C.ar    1  UNL1        0.0145
     21 C         142.2729  145.2884  157.5105 C.ar    1  UNL1        0.0374
     22 C         142.0447  143.8597  157.9064 C.ar    1  UNL1        0.1344
     23 C         139.6259  140.1122  167.9226 C.3     1  UNL1        0.0987
     24 C         139.7209  140.1504  169.4191 C.2     1  UNL1        0.0652
     25 O         138.7112  140.9228  170.2152 O.co2   1  UNL1       -0.5478
     26 O         140.8256  139.4161  170.1195 O.co2   1  UNL1       -0.5478
     27 C         138.5562  139.2961  167.2596 C.3     1  UNL1        0.0480
     28 C         138.5557  139.1294  165.7689 C.ar    1  UNL1       -0.0203
     29 C         139.0584  137.8557  165.1564 C.ar    1  UNL1       -0.0019
     30 C         139.0578  137.6891  163.6656 C.ar    1  UNL1        0.0293
     31 C         138.5546  138.7961  162.7874 C.ar    1  UNL1        0.1401
     32 F         138.5541  138.6295  161.2967 F       1  UNL1       -0.2042
     33 C         138.0519  140.0698  163.3999 C.ar    1  UNL1        0.0293
     34 C         138.0525  140.2364  164.8906 C.ar    1  UNL1       -0.0019
@<TRIPOS>UNITY_ATOM_ATTR
25 1
charge -1
@<TRIPOS>BOND
     1    15    16    1
     2    16    17   ar
     3    17    18   ar
     4    18    19    1
     5    18    20   ar
     6    20    21   ar
     7    21    22   ar
     8    22    14    1
     9    14     8    1
    10     8     9    1
    11     9    10    1
    12    10    11    1
    13    11     7    1
    14     7     1    1
    15     1     2    1
    16     2     3    1
    17     3     4    1
    18     4    23    1
    19    23    27    1
    20    27    28    1
    21    28    29   ar
    22    29    30   ar
    23    30    31   ar
    24    31    32    1
    25    31    33   ar
    26    33    34   ar
    27    23    24    1
    28    24    25   ar
    29    24    26   ar
    30     4     5    1
    31     5     6    1
    32    11    12    1
    33    12    13    1
    34    22    16   ar
    35    13     8    1
    36     6     1    1
    37    34    28   ar
@<TRIPOS>MOLECULE
*****
 34 37 0 0 0
SMALL
GASTEIGER

@<TRIPOS>ATOM
      1 C         142.6972  142.1156  166.5643 C.3     1  UNL1        0.0188
      2 C         141.3887  142.8378  166.6925 C.3     1  UNL1        0.0188
      3 C         140.2044  142.1427  167.2959 C.3     1  UNL1        0.0724
      4 N         140.3286  140.7254  167.7712 N.3     1  UNL1       -0.2691
      5 C         141.6370  140.0033  167.6429 C.3     1  UNL1        0.0724
      6 C         142.8213  140.6984  167.0395 C.3     1  UNL1        0.0188
      7 C         143.8815  142.8108  165.9608 C.3     1  UNL1        0.0721
      8 C         144.5723  142.6321  161.5177 C.3     1  UNL1        0.1687
      9 C         143.6342  143.6530  162.0905 C.3     1  UNL1        0.0609
     10 C         143.4040  143.7125  163.5715 C.3     1  UNL1        0.0758
     11 N         144.1118  142.7513  164.4798 N.3     1  UNL1       -0.2724
     12 C         145.0498  141.7305  163.9071 C.3     1  UNL1        0.0758
     13 C         145.2800  141.6709  162.4260 C.3     1  UNL1        0.0609
     14 O         144.8025  142.5726  160.0367 O.3     1  UNL1       -0.4794
     15 C         143.7123  139.8344  159.4763 C.3     1  UNL1        0.0342
     16 C         143.0954  141.0355  158.8230 C.ar    1  UNL1        0.0129
     17 C         141.9334  140.8675  157.8895 C.ar    1  UNL1        0.0101
     18 C         141.3164  142.0685  157.2362 C.ar    1  UNL1        0.0576
     19 CL        140.1543  141.9005  156.3026 Cl      1  UNL1       -0.0823
     20 C         141.8615  143.4376  157.5164 C.ar    1  UNL1        0.0145
     21 C         143.0235  143.6056  158.4499 C.ar    1  UNL1        0.0374
     22 C         143.6404  142.4045  159.1032 C.ar    1  UNL1        0.1344
     23 C         139.1442  140.0302  168.3746 C.3     1  UNL1        0.0987
     24 C         138.7942  140.2587  169.8152 C.2     1  UNL1        0.0652
     25 O         137.6407  139.5249  170.4323 O.co2   1  UNL1       -0.5478
     26 O         139.5978  141.2211  170.6387 O.co2   1  UNL1       -0.5478
     27 C         138.3100  139.1065  167.5375 C.3     1  UNL1        0.0480
     28 C         138.4828  139.0826  166.0477 C.ar    1  UNL1       -0.0203
     29 C         139.0595  137.8701  165.3789 C.ar    1  UNL1       -0.0019
     30 C         139.2323  137.8463  163.8891 C.ar    1  UNL1        0.0293
     31 C         138.8286  139.0349  163.0681 C.ar    1  UNL1        0.1401
     32 F         139.0014  139.0110  161.5783 F       1  UNL1       -0.2042
     33 C         138.2519  140.2474  163.7369 C.ar    1  UNL1        0.0293
     34 C         138.0791  140.2713  165.2267 C.ar    1  UNL1       -0.0019
@<TRIPOS>UNITY_ATOM_ATTR
25 1
charge -1
@<TRIPOS>BOND
     1    15    16    1
     2    16    17   ar
     3    17    18   ar
     4    18    19    1
     5    18    20   ar
     6    20    21   ar
     7    21    22   ar
     8    22    14    1
     9    14     8    1
    10     8     9    1
    11     9    10    1
    12    10    11    1
    13    11     7    1
    14     7     1    1
    15     1     2    1
    16     2     3    1
    17     3     4    1
    18     4    23    1
    19    23    27    1
    20    27    28    1
    21    28    29   ar
    22    29    30   ar
    23    30    31   ar
    24    31    32    1
    25    31    33   ar
    26    33    34   ar
    27    23    24    1
    28    24    25   ar
    29    24    26   ar
    30     4     5    1
    31     5     6    1
    32    11    12    1
    33    12    13    1
    34    22    16   ar
    35    13     8    1
    36     6     1    1
    37    34    28   ar
@<TRIPOS>MOLECULE
*****
 34 37 0 0 0
SMALL
GASTEIGER

@<TRIPOS>ATOM
      1 C         143.1824  141.3543  165.6208 C.3     1  UNL1        0.0188
      2 C         142.1138  142.3362  166.0003 C.3     1  UNL1        0.0188
      3 C         140.9470  141.8911  166.8313 C.3     1  UNL1        0.0724
      4 N         140.8489  140.4640  167.2827 N.3     1  UNL1       -0.2691
      5 C         141.9175  139.4821  166.9032 C.3     1  UNL1        0.0724
      6 C         143.0842  139.9273  166.0722 C.3     1  UNL1        0.0188
      7 C         144.3491  141.7996  164.7898 C.3     1  UNL1        0.0721
      8 C         143.7982  142.6355  160.4026 C.3     1  UNL1        0.1687
      9 C         143.6676  143.7480  161.4003 C.3     1  UNL1        0.0609
     10 C         143.8512  143.4694  162.8627 C.3     1  UNL1        0.0758
     11 N         144.1655  142.0782  163.3274 N.3     1  UNL1       -0.2724
     12 C         144.2961  140.9658  162.3298 C.3     1  UNL1        0.0758
     13 C         144.1124  141.2444  160.8673 C.3     1  UNL1        0.0609
     14 O         143.6145  142.9142  158.9402 O.3     1  UNL1       -0.4794
     15 C         146.3111  142.6988  157.6432 C.3     1  UNL1        0.0342
     16 C         145.2262  141.7273  157.2837 C.ar    1  UNL1        0.0129
     17 C         145.4895  140.6482  156.2757 C.ar    1  UNL1        0.0101
     18 C         144.4046  139.6767  155.9162 C.ar    1  UNL1        0.0576
     19 CL        144.6680  138.5975  154.9082 Cl      1  UNL1       -0.0823
     20 C         143.0563  139.7844  156.5647 C.ar    1  UNL1        0.0145
     21 C         142.7930  140.8636  157.5727 C.ar    1  UNL1        0.0374
     22 C         143.8779  141.8350  157.9322 C.ar    1  UNL1        0.1344
     23 C         139.6821  140.0188  168.1137 C.3     1  UNL1        0.0987
     24 C         139.7154  140.1863  169.6039 C.2     1  UNL1        0.0652
     25 O         138.8656  141.2339  170.2600 O.co2   1  UNL1       -0.5478
     26 O         140.5984  139.3062  170.4381 O.co2   1  UNL1       -0.5478
     27 C         138.4822  139.4060  167.4544 C.3     1  UNL1        0.0480
     28 C         138.4688  139.1939  165.9696 C.ar    1  UNL1       -0.0203
     29 C         138.0729  140.3152  165.0553 C.ar    1  UNL1       -0.0019
     30 C         138.0595  140.1030  163.5704 C.ar    1  UNL1        0.0293
     31 C         138.4420  138.7695  162.9998 C.ar    1  UNL1        0.1401
     32 F         138.4286  138.5574  161.5150 F       1  UNL1       -0.2042
     33 C         138.8380  137.6482  163.9142 C.ar    1  UNL1        0.0293
     34 C         138.8513  137.8604  165.3990 C.ar    1  UNL1       -0.0019
@<TRIPOS>UNITY_ATOM_ATTR
25 1
charge -1
@<TRIPOS>BOND
     1    15    16    1
     2    16    17   ar
     3    17    18   ar
     4    18    19    1
     5    18    20   ar
     6    20    21   ar
     7    21    22   ar
     8    22    14    1
     9    14     8    1
    10     8     9    1
    11     9    10    1
    12    10    11    1
    13    11     7    1
    14     7     1    1
    15     1     2    1
    16     2     3    1
    17     3     4    1
    18     4    23    1
    19    23    27    1
    20    27    28    1
    21    28    29   ar
    22    29    30   ar
    23    30    31   ar
    24    31    32    1
    25    31    33   ar
    26    33    34   ar
    27    23    24    1
    28    24    25   ar
    29    24    26   ar
    30     4     5    1
    31     5     6    1
    32    11    12    1
    33    12    13    1
    34    22    16   ar
    35    13     8    1
    36     6     1    1
    37    34    28   ar
@<TRIPOS>MOLECULE
*****
 34 37 0 0 0
SMALL
GASTEIGER

@<TRIPOS>ATOM
      1 C         144.1248  140.7832  164.5537 C.3     1  UNL1        0.0188
      2 C         143.9123  139.3989  165.0910 C.3     1  UNL1        0.0188
      3 C         142.8944  139.1599  166.1665 C.3     1  UNL1        0.0724
      4 N         142.0891  140.3051  166.7048 N.3     1  UNL1       -0.2691
      5 C         142.3016  141.6894  166.1675 C.3     1  UNL1        0.0724
      6 C         143.3194  141.9284  165.0920 C.3     1  UNL1        0.0188
      7 C         145.1427  141.0222  163.4781 C.3     1  UNL1        0.0721
      8 C         143.8780  141.0978  159.1601 C.3     1  UNL1        0.1687
      9 C         143.7943  139.8216  159.9440 C.3     1  UNL1        0.0609
     10 C         144.2159  139.7964  161.3833 C.3     1  UNL1        0.0758
     11 N         144.7211  141.0474  162.0388 N.3     1  UNL1       -0.2724
     12 C         144.8048  142.3236  161.2551 C.3     1  UNL1        0.0758
     13 C         144.3833  142.3488  159.8157 C.3     1  UNL1        0.0609
     14 O         143.4565  141.1230  157.7208 O.3     1  UNL1       -0.4794
     15 C         145.5982  140.3337  155.7739 C.3     1  UNL1        0.0342
     16 C         144.4065  139.4460  155.9787 C.ar    1  UNL1        0.0129
     17 C         144.2857  138.1636  155.2100 C.ar    1  UNL1        0.0101
     18 C         143.0941  137.2759  155.4148 C.ar    1  UNL1        0.0576
     19 CL        142.9734  135.9934  154.6460 Cl      1  UNL1       -0.0823
     20 C         142.0233  137.6705  156.3882 C.ar    1  UNL1        0.0145
     21 C         142.1441  138.9528  157.1569 C.ar    1  UNL1        0.0374
     22 C         143.3357  139.8406  156.9521 C.ar    1  UNL1        0.1344
     23 C         141.0712  140.0661  167.7804 C.3     1  UNL1        0.0987
     24 C         141.5156  139.8065  169.1893 C.2     1  UNL1        0.0652
     25 O         140.5008  139.5102  170.2533 O.co2   1  UNL1       -0.5478
     26 O         142.9750  139.8432  169.5342 O.co2   1  UNL1       -0.5478
     27 C         139.6089  140.0867  167.4470 C.3     1  UNL1        0.0480
     28 C         139.1509  139.7443  166.0603 C.ar    1  UNL1       -0.0203
     29 C         139.3055  138.3446  165.5435 C.ar    1  UNL1       -0.0019
     30 C         138.8474  138.0022  164.1568 C.ar    1  UNL1        0.0293
     31 C         138.2348  139.0595  163.2868 C.ar    1  UNL1        0.1401
     32 F         137.7768  138.7171  161.9001 F       1  UNL1       -0.2042
     33 C         138.0802  140.4592  163.8036 C.ar    1  UNL1        0.0293
     34 C         138.5382  140.8016  165.1902 C.ar    1  UNL1       -0.0019
@<TRIPOS>UNITY_ATOM_ATTR
25 1
charge -1
@<TRIPOS>BOND
     1    15    16    1
     2    16    17   ar
     3    17    18   ar
     4    18    19    1
     5    18    20   ar
     6    20    21   ar
     7    21    22   ar
     8    22    14    1
     9    14     8    1
    10     8     9    1
    11     9    10    1
    12    10    11    1
    13    11     7    1
    14     7     1    1
    15     1     2    1
    16     2     3    1
    17     3     4    1
    18     4    23    1
    19    23    27    1
    20    27    28    1
    21    28    29   ar
    22    29    30   ar
    23    30    31   ar
    24    31    32    1
    25    31    33   ar
    26    33    34   ar
    27    23    24    1
    28    24    25   ar
    29    24    26   ar
    30     4     5    1
    31     5     6    1
    32    11    12    1
    33    12    13    1
    34    22    16   ar
    35    13     8    1
    36     6     1    1
    37    34    28   ar
