@<TRIPOS>MOLECULE
*****
 36 40 0 0 0
SMALL
GASTEIGER

@<TRIPOS>ATOM
      1 C         140.3059  142.2110  161.8067 C.ar    1  UNL1        0.0884
      2 C         140.1420  141.6548  163.1901 C.ar    1  UNL1        0.0846
      3 N         139.7396  142.5572  164.3186 N.ar    1  UNL1       -0.2897
      4 C         139.5010  144.0161  164.0638 C.ar    1  UNL1        0.2641
      5 O         139.0986  144.9186  165.1923 O.2     1  UNL1       -0.2669
      6 C         139.6649  144.5724  162.6804 C.ar    1  UNL1        0.0944
      7 C         139.4995  145.9578  162.1297 C.ar    1  UNL1        0.1263
      8 N         139.7997  145.9114  160.6607 N.ar    1  UNL1       -0.1676
      9 N         140.1506  144.4974  160.3037 N.ar    1  UNL1       -0.2524
     10 C         140.0673  143.6698  161.5519 C.ar    1  UNL1        0.0897
     11 C         140.5200  143.9987  158.9381 C.3     1  UNL1        0.1079
     12 C         139.4695  143.4053  158.0469 C.3     1  UNL1        0.0415
     13 C         139.8389  142.9064  156.6812 C.3     1  UNL1        0.0706
     14 N         141.2587  143.0011  156.2069 N.3     1  UNL1       -0.2974
     15 C         142.3092  143.5945  157.0982 C.3     1  UNL1        0.0706
     16 C         141.9399  144.0933  158.4637 C.3     1  UNL1        0.0415
     17 H         141.2473  143.5591  155.3532 H       1  UNL1        0.1232
     18 O         139.6628  140.7293  159.7717 O.2     1  UNL1       -0.2697
     19 C         140.7083  141.3085  160.6782 C.2     1  UNL1        0.2524
     20 N         142.1561  140.9851  160.4562 N.am    1  UNL1       -0.2802
     21 H         142.8422  141.3652  161.0512 H       1  UNL1        0.1552
     22 C         142.5584  140.0826  159.3277 C.ar    1  UNL1        0.0537
     23 C         143.2983  140.6408  158.1483 C.ar    1  UNL1        0.0353
     24 C         143.7007  139.7383  157.0197 C.ar    1  UNL1        0.1002
     25 N         143.3632  138.2777  157.0705 N.ar    1  UNL1       -0.2422
     26 C         142.6232  137.7195  158.2500 C.ar    1  UNL1        0.1002
     27 C         142.2209  138.6219  159.3785 C.ar    1  UNL1        0.0353
     28 C         139.5757  142.0009  165.7020 C.3     1  UNL1        0.1358
     29 C         140.6937  142.1187  166.6950 C.ar    1  UNL1        0.0014
     30 C         142.1152  142.1814  166.2201 C.ar    1  UNL1       -0.0015
     31 C         143.2332  142.2992  167.2133 C.ar    1  UNL1        0.0120
     32 C         142.9298  142.3544  168.6811 C.ar    1  UNL1        0.0682
     33 CL        144.0477  142.4722  169.6743 Cl      1  UNL1       -0.0814
     34 C         141.5082  142.2917  169.1561 C.ar    1  UNL1        0.0679
     35 CL        141.2048  142.3469  170.6240 Cl      1  UNL1       -0.0814
     36 C         140.3902  142.1739  168.1630 C.ar    1  UNL1        0.0099
@<TRIPOS>BOND
     1    18    19    2
     2    19    20   am
     3    20    22    1
     4    22    23   ar
     5    23    24   ar
     6    24    25   ar
     7    25    26   ar
     8    26    27   ar
     9    19     1    1
    10     1     2   ar
    11     2     3   ar
    12     3    28    1
    13    28    29    1
    14    29    30   ar
    15    30    31   ar
    16    31    32   ar
    17    32    33    1
    18    32    34   ar
    19    34    35    1
    20    34    36   ar
    21     3     4   ar
    22     4     5    2
    23     4     6   ar
    24     6     7   ar
    25     7     8   ar
    26     8     9   ar
    27     9    11    1
    28    11    12    1
    29    12    13    1
    30    13    14    1
    31    14    15    1
    32    15    16    1
    33     9    10   ar
    34    27    22   ar
    35    10     1   ar
    36    36    29   ar
    37    10     6   ar
    38    16    11    1
    39    20    21    1
    40    14    17    1
@<TRIPOS>MOLECULE
*****
 36 40 0 0 0
SMALL
GASTEIGER

@<TRIPOS>ATOM
      1 C         143.3069  140.5193  162.3494 C.ar    1  UNL1        0.0884
      2 C         143.1837  139.6828  163.5883 C.ar    1  UNL1        0.0846
      3 N         143.2921  140.3238  164.9400 N.ar    1  UNL1       -0.2897
      4 C         143.5237  141.8016  165.0529 C.ar    1  UNL1        0.2641
      5 O         143.6320  142.4427  166.4047 O.2     1  UNL1       -0.2669
      6 C         143.6469  142.6382  163.8140 C.ar    1  UNL1        0.0944
      7 C         143.8752  144.1071  163.6134 C.ar    1  UNL1        0.1263
      8 N         143.9080  144.3737  162.1377 N.ar    1  UNL1       -0.1676
      9 N         143.6999  143.0697  161.4262 N.ar    1  UNL1       -0.2524
     10 C         143.5385  141.9970  162.4623 C.ar    1  UNL1        0.0897
     11 C         143.6601  142.8729  159.9397 C.3     1  UNL1        0.1079
     12 C         142.3677  143.0354  159.1960 C.3     1  UNL1        0.0415
     13 C         142.3279  142.8386  157.7094 C.3     1  UNL1        0.0706
     14 N         143.5805  142.4794  156.9667 N.3     1  UNL1       -0.2974
     15 C         144.8730  142.3169  157.7105 C.3     1  UNL1        0.0706
     16 C         144.9128  142.5136  159.1969 C.3     1  UNL1        0.0415
     17 H         143.7307  143.2106  156.2716 H       1  UNL1        0.1232
     18 O         144.4349  139.4128  160.2870 O.2     1  UNL1       -0.2697
     19 C         143.1986  139.8782  160.9977 C.2     1  UNL1        0.2524
     20 N         141.8539  139.7025  160.3566 N.am    1  UNL1       -0.2802
     21 H         141.0425  140.0079  160.8229 H       1  UNL1        0.1552
     22 C         141.7456  139.0613  159.0048 C.ar    1  UNL1        0.0537
     23 C         142.5326  137.8219  158.6974 C.ar    1  UNL1        0.0353
     24 C         142.4244  137.1807  157.3457 C.ar    1  UNL1        0.1002
     25 N         141.5292  137.7789  156.3013 N.ar    1  UNL1       -0.2422
     26 C         140.7422  139.0184  156.6088 C.ar    1  UNL1        0.1002
     27 C         140.8504  139.6595  157.9604 C.ar    1  UNL1        0.0353
     28 C         143.1688  139.4872  166.1790 C.3     1  UNL1        0.1358
     29 C         142.0274  139.7126  167.1258 C.ar    1  UNL1        0.0014
     30 C         140.6158  139.6821  166.6194 C.ar    1  UNL1       -0.0015
     31 C         139.4744  139.9076  167.5663 C.ar    1  UNL1        0.0120
     32 C         139.7446  140.1635  169.0193 C.ar    1  UNL1        0.0682
     33 CL        138.6033  140.3890  169.9661 Cl      1  UNL1       -0.0814
     34 C         141.1563  140.1941  169.5256 C.ar    1  UNL1        0.0679
     35 CL        141.4265  140.4501  170.9787 Cl      1  UNL1       -0.0814
     36 C         142.2977  139.9686  168.5789 C.ar    1  UNL1        0.0099
@<TRIPOS>BOND
     1    18    19    2
     2    19    20   am
     3    20    22    1
     4    22    23   ar
     5    23    24   ar
     6    24    25   ar
     7    25    26   ar
     8    26    27   ar
     9    19     1    1
    10     1     2   ar
    11     2     3   ar
    12     3    28    1
    13    28    29    1
    14    29    30   ar
    15    30    31   ar
    16    31    32   ar
    17    32    33    1
    18    32    34   ar
    19    34    35    1
    20    34    36   ar
    21     3     4   ar
    22     4     5    2
    23     4     6   ar
    24     6     7   ar
    25     7     8   ar
    26     8     9   ar
    27     9    11    1
    28    11    12    1
    29    12    13    1
    30    13    14    1
    31    14    15    1
    32    15    16    1
    33     9    10   ar
    34    27    22   ar
    35    10     1   ar
    36    36    29   ar
    37    10     6   ar
    38    16    11    1
    39    20    21    1
    40    14    17    1
@<TRIPOS>MOLECULE
*****
 36 40 0 0 0
SMALL
GASTEIGER

@<TRIPOS>ATOM
      1 C         142.3302  138.7929  158.5855 C.ar    1  UNL1        0.0884
      2 C         142.0286  137.6954  157.6086 C.ar    1  UNL1        0.0846
      3 N         142.7207  137.6642  156.2783 N.ar    1  UNL1       -0.2897
      4 C         143.7147  138.7306  155.9248 C.ar    1  UNL1        0.2641
      5 O         144.4069  138.6993  154.5944 O.2     1  UNL1       -0.2669
      6 C         144.0164  139.8281  156.9017 C.ar    1  UNL1        0.0944
      7 C         144.9417  141.0067  156.8328 C.ar    1  UNL1        0.1263
      8 N         144.8214  141.7663  158.1206 N.ar    1  UNL1       -0.1676
      9 N         143.8217  141.0572  158.9854 N.ar    1  UNL1       -0.2524
     10 C         143.3242  139.8593  158.2320 C.ar    1  UNL1        0.0897
     11 C         143.3945  141.4730  160.3619 C.3     1  UNL1        0.1079
     12 C         142.3034  142.4877  160.5340 C.3     1  UNL1        0.0415
     13 C         141.8762  142.9036  161.9105 C.3     1  UNL1        0.0706
     14 N         142.5401  142.3046  163.1147 N.3     1  UNL1       -0.2974
     15 C         143.6313  141.2898  162.9426 C.3     1  UNL1        0.0706
     16 C         144.0585  140.8740  161.5662 C.3     1  UNL1        0.0415
     17 H         141.8060  141.8574  163.6638 H       1  UNL1        0.1232
     18 O         140.5224  139.7972  160.1582 O.2     1  UNL1       -0.2697
     19 C         141.6380  138.8241  159.9159 C.2     1  UNL1        0.2524
     20 N         142.0614  137.8824  161.0039 N.am    1  UNL1       -0.2802
     21 H         142.7936  137.2437  160.8449 H       1  UNL1        0.1552
     22 C         141.3691  137.9136  162.3342 C.ar    1  UNL1        0.0537
     23 C         139.8792  137.7566  162.4082 C.ar    1  UNL1        0.0353
     24 C         139.1868  137.7879  163.7385 C.ar    1  UNL1        0.1002
     25 N         139.9843  137.9761  164.9948 N.ar    1  UNL1       -0.2422
     26 C         141.4743  138.1331  164.9208 C.ar    1  UNL1        0.1002
     27 C         142.1666  138.1019  163.5906 C.ar    1  UNL1        0.0353
     28 C         142.4190  136.5665  155.3014 C.3     1  UNL1        0.1358
     29 C         142.5616  135.1324  155.7171 C.ar    1  UNL1        0.0014
     30 C         141.5974  134.1037  155.2052 C.ar    1  UNL1       -0.0015
     31 C         141.7401  132.6695  155.6210 C.ar    1  UNL1        0.0120
     32 C         142.8469  132.2640  156.5485 C.ar    1  UNL1        0.0682
     33 CL        142.9896  130.8299  156.9643 Cl      1  UNL1       -0.0814
     34 C         143.8112  133.2928  157.0604 C.ar    1  UNL1        0.0679
     35 CL        144.9180  132.8873  157.9880 Cl      1  UNL1       -0.0814
     36 C         143.6685  134.7269  156.6447 C.ar    1  UNL1        0.0099
@<TRIPOS>BOND
     1    18    19    2
     2    19    20   am
     3    20    22    1
     4    22    23   ar
     5    23    24   ar
     6    24    25   ar
     7    25    26   ar
     8    26    27   ar
     9    19     1    1
    10     1     2   ar
    11     2     3   ar
    12     3    28    1
    13    28    29    1
    14    29    30   ar
    15    30    31   ar
    16    31    32   ar
    17    32    33    1
    18    32    34   ar
    19    34    35    1
    20    34    36   ar
    21     3     4   ar
    22     4     5    2
    23     4     6   ar
    24     6     7   ar
    25     7     8   ar
    26     8     9   ar
    27     9    11    1
    28    11    12    1
    29    12    13    1
    30    13    14    1
    31    14    15    1
    32    15    16    1
    33     9    10   ar
    34    27    22   ar
    35    10     1   ar
    36    36    29   ar
    37    10     6   ar
    38    16    11    1
    39    20    21    1
    40    14    17    1
@<TRIPOS>MOLECULE
*****
 36 40 0 0 0
SMALL
GASTEIGER

@<TRIPOS>ATOM
      1 C         141.6154  142.7756  160.9760 C.ar    1  UNL1        0.0884
      2 C         141.9185  141.9467  162.1888 C.ar    1  UNL1        0.0846
      3 N         141.3893  142.3590  163.5304 N.ar    1  UNL1       -0.2897
      4 C         140.5568  143.6002  163.6591 C.ar    1  UNL1        0.2641
      5 O         140.0275  144.0125  165.0008 O.2     1  UNL1       -0.2669
      6 C         140.2537  144.4290  162.4462 C.ar    1  UNL1        0.0944
      7 C         139.4666  145.6931  162.2655 C.ar    1  UNL1        0.1263
      8 N         139.5095  146.0620  160.8122 N.ar    1  UNL1       -0.1676
      9 N         140.3231  145.0260  160.0947 N.ar    1  UNL1       -0.2524
     10 C         140.7830  144.0167  161.1046 C.ar    1  UNL1        0.0897
     11 C         140.6239  145.0032  158.6254 C.3     1  UNL1        0.1079
     12 C         139.7500  144.2177  157.6931 C.3     1  UNL1        0.0415
     13 C         140.0507  144.1948  156.2236 C.3     1  UNL1        0.0706
     14 N         141.2253  144.9576  155.6867 N.3     1  UNL1       -0.2974
     15 C         142.0992  145.7431  156.6191 C.3     1  UNL1        0.0706
     16 C         141.7985  145.7660  158.0884 C.3     1  UNL1        0.0415
     17 H         140.8592  145.6173  155.0003 H       1  UNL1        0.1232
     18 O         141.3648  141.4063  158.7821 O.2     1  UNL1       -0.2697
     19 C         142.1447  142.3632  159.6344 C.2     1  UNL1        0.2524
     20 N         143.4539  142.9077  159.1450 N.am    1  UNL1       -0.2802
     21 H         143.9658  143.5357  159.7043 H       1  UNL1        0.1552
     22 C         143.9832  142.4953  157.8034 C.ar    1  UNL1        0.0537
     23 C         145.4571  142.2978  157.6070 C.ar    1  UNL1        0.0353
     24 C         145.9864  141.8855  156.2655 C.ar    1  UNL1        0.1002
     25 N         145.0418  141.6706  155.1203 N.ar    1  UNL1       -0.2422
     26 C         143.5679  141.8681  155.3167 C.ar    1  UNL1        0.1002
     27 C         143.0386  142.2805  156.6581 C.ar    1  UNL1        0.0353
     28 C         141.6924  141.5301  164.7433 C.3     1  UNL1        0.1358
     29 C         140.6091  140.7137  165.3837 C.ar    1  UNL1        0.0014
     30 C         139.7316  139.8379  164.5394 C.ar    1  UNL1       -0.0015
     31 C         138.6482  139.0215  165.1799 C.ar    1  UNL1        0.0120
     32 C         138.4426  139.0810  166.6644 C.ar    1  UNL1        0.0682
     33 CL        137.3593  138.2647  167.3049 Cl      1  UNL1       -0.0814
     34 C         139.3202  139.9569  167.5087 C.ar    1  UNL1        0.0679
     35 CL        139.1144  140.0164  168.9934 Cl      1  UNL1       -0.0814
     36 C         140.4034  140.7733  166.8684 C.ar    1  UNL1        0.0099
@<TRIPOS>BOND
     1    18    19    2
     2    19    20   am
     3    20    22    1
     4    22    23   ar
     5    23    24   ar
     6    24    25   ar
     7    25    26   ar
     8    26    27   ar
     9    19     1    1
    10     1     2   ar
    11     2     3   ar
    12     3    28    1
    13    28    29    1
    14    29    30   ar
    15    30    31   ar
    16    31    32   ar
    17    32    33    1
    18    32    34   ar
    19    34    35    1
    20    34    36   ar
    21     3     4   ar
    22     4     5    2
    23     4     6   ar
    24     6     7   ar
    25     7     8   ar
    26     8     9   ar
    27     9    11    1
    28    11    12    1
    29    12    13    1
    30    13    14    1
    31    14    15    1
    32    15    16    1
    33     9    10   ar
    34    27    22   ar
    35    10     1   ar
    36    36    29   ar
    37    10     6   ar
    38    16    11    1
    39    20    21    1
    40    14    17    1
@<TRIPOS>MOLECULE
*****
 36 40 0 0 0
SMALL
GASTEIGER

@<TRIPOS>ATOM
      1 C         138.9877  141.2093  160.5379 C.ar    1  UNL1        0.0884
      2 C         138.9134  140.1256  159.5034 C.ar    1  UNL1        0.0846
      3 N         139.2199  140.4363  158.0684 N.ar    1  UNL1       -0.2897
      4 C         139.6008  141.8308  157.6677 C.ar    1  UNL1        0.2641
      5 O         139.9073  142.1414  156.2325 O.2     1  UNL1       -0.2669
      6 C         139.6750  142.9145  158.7021 C.ar    1  UNL1        0.0944
      7 C         140.0197  144.3712  158.6066 C.ar    1  UNL1        0.1263
      8 N         139.9261  144.9608  159.9827 N.ar    1  UNL1       -0.1676
      9 N         139.5237  143.8685  160.9287 N.ar    1  UNL1       -0.2524
     10 C         139.3685  142.6037  160.1372 C.ar    1  UNL1        0.0897
     11 C         139.3134  144.0151  162.4066 C.3     1  UNL1        0.1079
     12 C         137.9272  144.1868  162.9534 C.3     1  UNL1        0.0415
     13 C         137.7168  144.3335  164.4314 C.3     1  UNL1        0.0706
     14 N         138.8926  144.3085  165.3624 N.3     1  UNL1       -0.2974
     15 C         140.2788  144.1368  164.8155 C.3     1  UNL1        0.0706
     16 C         140.4892  143.9901  163.3376 C.3     1  UNL1        0.0415
     17 H         138.7358  143.5396  166.0141 H       1  UNL1        0.1232
     18 O         137.3054  141.1471  162.5169 O.2     1  UNL1       -0.2697
     19 C         138.6811  140.8986  161.9729 C.2     1  UNL1        0.2524
     20 N         139.7502  140.3393  162.8642 N.am    1  UNL1       -0.2802
     21 H         140.6531  140.1762  162.5072 H       1  UNL1        0.1552
     22 C         139.4436  140.0286  164.2993 C.ar    1  UNL1        0.0537
     23 C         140.0003  140.8952  165.3897 C.ar    1  UNL1        0.0353
     24 C         139.6937  140.5846  166.8248 C.ar    1  UNL1        0.1002
     25 N         138.8304  139.4074  167.1695 N.ar    1  UNL1       -0.2422
     26 C         138.2737  138.5407  166.0789 C.ar    1  UNL1        0.1002
     27 C         138.5803  138.8514  164.6439 C.ar    1  UNL1        0.0353
     28 C         139.1456  139.3526  157.0339 C.3     1  UNL1        0.1358
     29 C         140.2855  138.3911  156.8717 C.ar    1  UNL1        0.0014
     30 C         141.6071  138.6785  157.5204 C.ar    1  UNL1       -0.0015
     31 C         142.7470  137.7170  157.3581 C.ar    1  UNL1        0.0120
     32 C         142.5653  136.4683  156.5473 C.ar    1  UNL1        0.0682
     33 CL        143.7051  135.5068  156.3850 Cl      1  UNL1       -0.0814
     34 C         141.2436  136.1809  155.8986 C.ar    1  UNL1        0.0679
     35 CL        141.0619  134.9322  155.0877 Cl      1  UNL1       -0.0814
     36 C         140.1037  137.1424  156.0608 C.ar    1  UNL1        0.0099
@<TRIPOS>BOND
     1    18    19    2
     2    19    20   am
     3    20    22    1
     4    22    23   ar
     5    23    24   ar
     6    24    25   ar
     7    25    26   ar
     8    26    27   ar
     9    19     1    1
    10     1     2   ar
    11     2     3   ar
    12     3    28    1
    13    28    29    1
    14    29    30   ar
    15    30    31   ar
    16    31    32   ar
    17    32    33    1
    18    32    34   ar
    19    34    35    1
    20    34    36   ar
    21     3     4   ar
    22     4     5    2
    23     4     6   ar
    24     6     7   ar
    25     7     8   ar
    26     8     9   ar
    27     9    11    1
    28    11    12    1
    29    12    13    1
    30    13    14    1
    31    14    15    1
    32    15    16    1
    33     9    10   ar
    34    27    22   ar
    35    10     1   ar
    36    36    29   ar
    37    10     6   ar
    38    16    11    1
    39    20    21    1
    40    14    17    1
@<TRIPOS>MOLECULE
*****
 36 40 0 0 0
SMALL
GASTEIGER

@<TRIPOS>ATOM
      1 C         141.4458  138.4620  159.1072 C.ar    1  UNL1        0.0884
      2 C         142.4615  137.5715  158.4550 C.ar    1  UNL1        0.0846
      3 N         142.3194  137.2066  157.0071 N.ar    1  UNL1       -0.2897
      4 C         141.1614  137.7321  156.2113 C.ar    1  UNL1        0.2641
      5 O         141.0193  137.3671  154.7633 O.2     1  UNL1       -0.2669
      6 C         140.1457  138.6225  156.8636 C.ar    1  UNL1        0.0944
      7 C         138.9083  139.2872  156.3374 C.ar    1  UNL1        0.1263
      8 N         138.2857  140.0629  157.4601 N.ar    1  UNL1       -0.1676
      9 N         139.1384  139.8777  158.6803 N.ar    1  UNL1       -0.2524
     10 C         140.2879  138.9874  158.3116 C.ar    1  UNL1        0.0897
     11 C         138.8857  140.4774  160.0317 C.3     1  UNL1        0.1079
     12 C         138.0504  139.7393  161.0355 C.3     1  UNL1        0.0415
     13 C         137.7977  140.3390  162.3870 C.3     1  UNL1        0.0706
     14 N         138.3804  141.6767  162.7348 N.3     1  UNL1       -0.2974
     15 C         139.2158  142.4147  161.7310 C.3     1  UNL1        0.0706
     16 C         139.4685  141.8151  160.3795 C.3     1  UNL1        0.0415
     17 H         138.9648  141.5379  163.5592 H       1  UNL1        0.1232
     18 O         142.1540  140.1617  160.9402 O.2     1  UNL1       -0.2697
     19 C         141.5880  138.8269  160.5552 C.2     1  UNL1        0.2524
     20 N         141.1643  137.8571  161.6182 N.am    1  UNL1       -0.2802
     21 H         140.7929  136.9810  161.3655 H       1  UNL1        0.1552
     22 C         141.3066  138.2221  163.0662 C.ar    1  UNL1        0.0537
     23 C         142.6705  138.4042  163.6632 C.ar    1  UNL1        0.0353
     24 C         142.8129  138.7692  165.1111 C.ar    1  UNL1        0.1002
     25 N         141.5912  138.9521  165.9621 N.ar    1  UNL1       -0.2422
     26 C         140.2272  138.7699  165.3650 C.ar    1  UNL1        0.1002
     27 C         140.0849  138.4049  163.9171 C.ar    1  UNL1        0.0353
     28 C         143.3351  136.3162  156.3547 C.3     1  UNL1        0.1358
     29 C         143.1498  134.8278  156.3733 C.ar    1  UNL1        0.0014
     30 C         142.0113  134.2044  155.6216 C.ar    1  UNL1       -0.0015
     31 C         141.8260  132.7159  155.6401 C.ar    1  UNL1        0.0120
     32 C         142.7792  131.8510  156.4103 C.ar    1  UNL1        0.0682
     33 CL        142.5940  130.3626  156.4288 Cl      1  UNL1       -0.0814
     34 C         143.9178  132.4745  157.1620 C.ar    1  UNL1        0.0679
     35 CL        144.8711  131.6095  157.9321 Cl      1  UNL1       -0.0814
     36 C         144.1031  133.9629  157.1435 C.ar    1  UNL1        0.0099
@<TRIPOS>BOND
     1    18    19    2
     2    19    20   am
     3    20    22    1
     4    22    23   ar
     5    23    24   ar
     6    24    25   ar
     7    25    26   ar
     8    26    27   ar
     9    19     1    1
    10     1     2   ar
    11     2     3   ar
    12     3    28    1
    13    28    29    1
    14    29    30   ar
    15    30    31   ar
    16    31    32   ar
    17    32    33    1
    18    32    34   ar
    19    34    35    1
    20    34    36   ar
    21     3     4   ar
    22     4     5    2
    23     4     6   ar
    24     6     7   ar
    25     7     8   ar
    26     8     9   ar
    27     9    11    1
    28    11    12    1
    29    12    13    1
    30    13    14    1
    31    14    15    1
    32    15    16    1
    33     9    10   ar
    34    27    22   ar
    35    10     1   ar
    36    36    29   ar
    37    10     6   ar
    38    16    11    1
    39    20    21    1
    40    14    17    1
@<TRIPOS>MOLECULE
*****
 36 40 0 0 0
SMALL
GASTEIGER

@<TRIPOS>ATOM
      1 C         141.6419  142.1287  162.4651 C.ar    1  UNL1        0.0884
      2 C         140.7872  142.5593  163.6200 C.ar    1  UNL1        0.0846
      3 N         141.4107  142.8155  164.9599 N.ar    1  UNL1       -0.2897
      4 C         142.8890  142.6412  165.1450 C.ar    1  UNL1        0.2641
      5 O         143.5125  142.8974  166.4850 O.2     1  UNL1       -0.2669
      6 C         143.7438  142.2106  163.9900 C.ar    1  UNL1        0.0944
      7 C         145.2175  141.9576  163.8715 C.ar    1  UNL1        0.1263
      8 N         145.5048  141.5450  162.4583 N.ar    1  UNL1       -0.1676
      9 N         144.2086  141.5430  161.7034 N.ar    1  UNL1       -0.2524
     10 C         143.1202  141.9544  162.6500 C.ar    1  UNL1        0.0897
     11 C         144.0318  141.1914  160.2559 C.3     1  UNL1        0.1079
     12 C         144.2720  142.2271  159.1978 C.3     1  UNL1        0.0415
     13 C         144.0952  141.8755  157.7503 C.3     1  UNL1        0.0706
     14 N         143.6784  140.4882  157.3610 N.3     1  UNL1       -0.2974
     15 C         143.4382  139.4525  158.4192 C.3     1  UNL1        0.0706
     16 C         143.6149  139.8040  159.8666 C.3     1  UNL1        0.0415
     17 H         144.4087  140.1217  156.7506 H       1  UNL1        0.1232
     18 O         141.1867  142.8690  160.0166 O.2     1  UNL1       -0.2697
     19 C         141.0183  141.8725  161.1251 C.2     1  UNL1        0.2524
     20 N         140.2264  140.6198  160.8936 N.am    1  UNL1       -0.2802
     21 H         140.1159  139.9658  161.6211 H       1  UNL1        0.1552
     22 C         139.6029  140.3636  159.5535 C.ar    1  UNL1        0.0537
     23 C         138.4805  141.2334  159.0701 C.ar    1  UNL1        0.0353
     24 C         137.8569  140.9773  157.7301 C.ar    1  UNL1        0.1002
     25 N         138.3557  139.8515  156.8735 N.ar    1  UNL1       -0.2422
     26 C         139.4782  138.9818  157.3571 C.ar    1  UNL1        0.1002
     27 C         140.1017  139.2378  158.6970 C.ar    1  UNL1        0.0353
     28 C         140.5559  143.2462  166.1150 C.3     1  UNL1        0.1358
     29 C         140.3574  142.3280  167.2844 C.ar    1  UNL1        0.0014
     30 C         139.8950  140.9186  167.0614 C.ar    1  UNL1       -0.0015
     31 C         139.6966  140.0005  168.2309 C.ar    1  UNL1        0.0120
     32 C         139.9604  140.4917  169.6233 C.ar    1  UNL1        0.0682
     33 CL        139.7620  139.5737  170.7929 Cl      1  UNL1       -0.0814
     34 C         140.4228  141.9012  169.8464 C.ar    1  UNL1        0.0679
     35 CL        140.6867  142.3925  171.2389 Cl      1  UNL1       -0.0814
     36 C         140.6213  142.8194  168.6769 C.ar    1  UNL1        0.0099
@<TRIPOS>BOND
     1    18    19    2
     2    19    20   am
     3    20    22    1
     4    22    23   ar
     5    23    24   ar
     6    24    25   ar
     7    25    26   ar
     8    26    27   ar
     9    19     1    1
    10     1     2   ar
    11     2     3   ar
    12     3    28    1
    13    28    29    1
    14    29    30   ar
    15    30    31   ar
    16    31    32   ar
    17    32    33    1
    18    32    34   ar
    19    34    35    1
    20    34    36   ar
    21     3     4   ar
    22     4     5    2
    23     4     6   ar
    24     6     7   ar
    25     7     8   ar
    26     8     9   ar
    27     9    11    1
    28    11    12    1
    29    12    13    1
    30    13    14    1
    31    14    15    1
    32    15    16    1
    33     9    10   ar
    34    27    22   ar
    35    10     1   ar
    36    36    29   ar
    37    10     6   ar
    38    16    11    1
    39    20    21    1
    40    14    17    1
@<TRIPOS>MOLECULE
*****
 36 40 0 0 0
SMALL
GASTEIGER

@<TRIPOS>ATOM
      1 C         141.0851  141.4239  159.9244 C.ar    1  UNL1        0.0884
      2 C         140.0403  140.9033  160.8664 C.ar    1  UNL1        0.0846
      3 N         139.1515  141.8604  161.6038 N.ar    1  UNL1       -0.2897
      4 C         139.3075  143.3382  161.3993 C.ar    1  UNL1        0.2641
      5 O         138.4186  144.2953  162.1368 O.2     1  UNL1       -0.2669
      6 C         140.3523  143.8588  160.4573 C.ar    1  UNL1        0.0944
      7 C         140.7369  145.2520  160.0557 C.ar    1  UNL1        0.1263
      8 N         141.8634  145.1558  159.0700 N.ar    1  UNL1       -0.1676
      9 N         142.1751  143.7033  158.8625 N.ar    1  UNL1       -0.2524
     10 C         141.2411  142.9017  159.7199 C.ar    1  UNL1        0.0897
     11 C         143.2346  143.1496  157.9565 C.3     1  UNL1        0.1079
     12 C         144.5471  142.6983  158.5256 C.3     1  UNL1        0.0415
     13 C         145.6067  142.1446  157.6197 C.3     1  UNL1        0.0706
     14 N         145.3539  142.0421  156.1448 N.3     1  UNL1       -0.2974
     15 C         144.0413  142.4934  155.5757 C.3     1  UNL1        0.0706
     16 C         142.9818  143.0471  156.4815 C.3     1  UNL1        0.0415
     17 H         145.4605  141.0589  155.8953 H       1  UNL1        0.1232
     18 O         143.3446  140.1589  159.7129 O.2     1  UNL1       -0.2697
     19 C         141.9740  140.4668  159.1869 C.2     1  UNL1        0.2524
     20 N         141.4922  139.8175  157.9235 N.am    1  UNL1       -0.2802
     21 H         140.5926  140.0195  157.5782 H       1  UNL1        0.1552
     22 C         142.3811  138.8603  157.1861 C.ar    1  UNL1        0.0537
     23 C         143.2701  139.3586  156.0855 C.ar    1  UNL1        0.0353
     24 C         144.1591  138.4015  155.3480 C.ar    1  UNL1        0.1002
     25 N         144.1590  136.9462  155.7111 N.ar    1  UNL1       -0.2422
     26 C         143.2699  136.4479  156.8118 C.ar    1  UNL1        0.1002
     27 C         142.3810  137.4050  157.5492 C.ar    1  UNL1        0.0353
     28 C         138.1067  141.3397  162.5458 C.3     1  UNL1        0.1358
     29 C         138.4796  140.9752  163.9522 C.ar    1  UNL1        0.0014
     30 C         138.1023  139.6324  164.5041 C.ar    1  UNL1       -0.0015
     31 C         138.4753  139.2679  165.9106 C.ar    1  UNL1        0.0120
     32 C         139.2254  140.2461  166.7651 C.ar    1  UNL1        0.0682
     33 CL        139.5984  139.8817  168.1715 Cl      1  UNL1       -0.0814
     34 C         139.6027  141.5890  166.2132 C.ar    1  UNL1        0.0679
     35 CL        140.3529  142.5673  167.0677 Cl      1  UNL1       -0.0814
     36 C         139.2298  141.9535  164.8067 C.ar    1  UNL1        0.0099
@<TRIPOS>BOND
     1    18    19    2
     2    19    20   am
     3    20    22    1
     4    22    23   ar
     5    23    24   ar
     6    24    25   ar
     7    25    26   ar
     8    26    27   ar
     9    19     1    1
    10     1     2   ar
    11     2     3   ar
    12     3    28    1
    13    28    29    1
    14    29    30   ar
    15    30    31   ar
    16    31    32   ar
    17    32    33    1
    18    32    34   ar
    19    34    35    1
    20    34    36   ar
    21     3     4   ar
    22     4     5    2
    23     4     6   ar
    24     6     7   ar
    25     7     8   ar
    26     8     9   ar
    27     9    11    1
    28    11    12    1
    29    12    13    1
    30    13    14    1
    31    14    15    1
    32    15    16    1
    33     9    10   ar
    34    27    22   ar
    35    10     1   ar
    36    36    29   ar
    37    10     6   ar
    38    16    11    1
    39    20    21    1
    40    14    17    1
@<TRIPOS>MOLECULE
*****
 36 40 0 0 0
SMALL
GASTEIGER

@<TRIPOS>ATOM
      1 C         141.2440  141.0460  162.8344 C.ar    1  UNL1        0.0884
      2 C         141.9981  141.6590  163.9770 C.ar    1  UNL1        0.0846
      3 N         142.5422  140.7877  165.0699 N.ar    1  UNL1       -0.2897
      4 C         142.3321  139.3032  165.0205 C.ar    1  UNL1        0.2641
      5 O         142.8762  138.4319  166.1136 O.2     1  UNL1       -0.2669
      6 C         141.5779  138.6902  163.8779 C.ar    1  UNL1        0.0944
      7 C         141.2165  137.2693  163.5612 C.ar    1  UNL1        0.1263
      8 N         140.4491  137.2625  162.2724 N.ar    1  UNL1       -0.1676
      9 N         140.3362  138.6792  161.7926 N.ar    1  UNL1       -0.2524
     10 C         141.0338  139.5616  162.7849 C.ar    1  UNL1        0.0897
     11 C         139.6467  139.1337  160.5404 C.3     1  UNL1        0.1079
     12 C         138.2727  139.7307  160.6153 C.3     1  UNL1        0.0415
     13 C         137.5831  140.1852  159.3630 C.3     1  UNL1        0.0706
     14 N         138.2676  140.0426  158.0360 N.3     1  UNL1       -0.2974
     15 C         139.6417  139.4456  157.9612 C.3     1  UNL1        0.0706
     16 C         140.3312  138.9911  159.2133 C.3     1  UNL1        0.0415
     17 H         138.3310  140.9785  157.6354 H       1  UNL1        0.1232
     18 O         139.2756  142.3853  161.7941 O.2     1  UNL1       -0.2697
     19 C         140.6999  141.9174  161.7414 C.2     1  UNL1        0.2524
     20 N         141.5800  142.3208  160.5957 N.am    1  UNL1       -0.2802
     21 H         142.5148  142.0138  160.5611 H       1  UNL1        0.1552
     22 C         141.0359  143.1922  159.5027 C.ar    1  UNL1        0.0537
     23 C         140.6696  142.5923  158.1776 C.ar    1  UNL1        0.0353
     24 C         140.1255  143.4636  157.0845 C.ar    1  UNL1        0.1002
     25 N         139.9476  144.9349  157.3166 N.ar    1  UNL1       -0.2422
     26 C         140.3138  145.5347  158.6418 C.ar    1  UNL1        0.1002
     27 C         140.8579  144.6634  159.7348 C.ar    1  UNL1        0.0353
     28 C         143.2964  141.4007  166.2125 C.3     1  UNL1        0.1358
     29 C         142.6243  141.5878  167.5404 C.ar    1  UNL1        0.0014
     30 C         143.3025  142.3791  168.6193 C.ar    1  UNL1       -0.0015
     31 C         142.6303  142.5662  169.9472 C.ar    1  UNL1        0.0120
     32 C         141.2802  141.9620  170.1962 C.ar    1  UNL1        0.0682
     33 CL        140.6080  142.1491  171.5240 Cl      1  UNL1       -0.0814
     34 C         140.6021  141.1707  169.1172 C.ar    1  UNL1        0.0679
     35 CL        139.2519  140.5665  169.3662 Cl      1  UNL1       -0.0814
     36 C         141.2741  140.9836  167.7893 C.ar    1  UNL1        0.0099
@<TRIPOS>BOND
     1    18    19    2
     2    19    20   am
     3    20    22    1
     4    22    23   ar
     5    23    24   ar
     6    24    25   ar
     7    25    26   ar
     8    26    27   ar
     9    19     1    1
    10     1     2   ar
    11     2     3   ar
    12     3    28    1
    13    28    29    1
    14    29    30   ar
    15    30    31   ar
    16    31    32   ar
    17    32    33    1
    18    32    34   ar
    19    34    35    1
    20    34    36   ar
    21     3     4   ar
    22     4     5    2
    23     4     6   ar
    24     6     7   ar
    25     7     8   ar
    26     8     9   ar
    27     9    11    1
    28    11    12    1
    29    12    13    1
    30    13    14    1
    31    14    15    1
    32    15    16    1
    33     9    10   ar
    34    27    22   ar
    35    10     1   ar
    36    36    29   ar
    37    10     6   ar
    38    16    11    1
    39    20    21    1
    40    14    17    1
