@<TRIPOS>MOLECULE
*****
 33 35 0 0 0
SMALL
GASTEIGER

@<TRIPOS>ATOM
      1 C         141.3847  144.9276  161.4797 C.ar    1  UNL1        0.1125
      2 C         140.3281  145.2468  162.4953 C.ar    1  UNL1        0.1566
      3 F         139.2191  146.1964  162.1509 F       1  UNL1       -0.2028
      4 C         140.3803  144.6164  163.8555 C.ar    1  UNL1        0.0356
      5 C         141.4892  143.6669  164.1999 C.ar    1  UNL1        0.0587
      6 C         142.5458  143.3477  163.1843 C.ar    1  UNL1        0.0429
      7 C         142.4936  143.9780  161.8242 C.ar    1  UNL1        0.1545
      8 C         140.2731  145.7170  157.7526 C.3     1  UNL1        0.0949
      9 C         140.3254  145.0866  159.1127 C.2     1  UNL1        0.2267
     10 O         139.3706  143.9850  159.4660 O.2     1  UNL1       -0.2748
     11 N         141.3324  145.5579  160.1196 N.am    1  UNL1       -0.2798
     12 H         141.9591  146.2809  159.8877 H       1  UNL1        0.1550
     13 C         141.5414  143.0366  165.5601 C.2     1  UNL1        0.2460
     14 O         140.3721  143.1635  166.4909 O.2     1  UNL1       -0.2701
     15 N         142.7630  142.2793  165.9893 N.am    1  UNL1       -0.3025
     16 H         143.5305  142.1960  165.3784 H       1  UNL1        0.1497
     17 C         142.8152  141.6490  167.3494 C.3     1  UNL1        0.0720
     18 C         143.2992  142.4435  168.5262 C.3     1  UNL1        0.0221
     19 C         143.3514  141.8131  169.8863 C.3     1  UNL1        0.0309
     20 C         142.9197  140.3883  170.0697 C.3     1  UNL1        0.1106
     21 O         142.9720  139.7580  171.4298 O.3     1  UNL1       -0.3845
     22 C         142.4358  139.5939  168.8930 C.3     1  UNL1        0.0309
     23 C         142.3836  140.2242  167.5329 C.3     1  UNL1        0.0221
     24 H         143.3056  140.4033  172.0727 H       1  UNL1        0.2103
     25 O         143.5503  143.6588  160.8085 O.3     1  UNL1       -0.4734
     26 C         143.9997  142.2410  160.6140 C.3     1  UNL1        0.1883
     27 C         144.0905  141.6658  159.2316 C.3     1  UNL1        0.0523
     28 C         144.3583  141.3983  161.8020 C.ar    1  UNL1        0.0172
     29 C         145.3909  141.8788  162.7782 C.ar    1  UNL1       -0.0008
     30 C         145.7495  141.0361  163.9661 C.ar    1  UNL1       -0.0002
     31 C         145.0755  139.7128  164.1779 C.ar    1  UNL1       -0.0000
     32 C         144.0430  139.2323  163.2017 C.ar    1  UNL1       -0.0002
     33 C         143.6844  140.0750  162.0138 C.ar    1  UNL1       -0.0008
@<TRIPOS>BOND
     1     8     9    1
     2     9    10    2
     3     9    11   am
     4    11     1    1
     5     1     2   ar
     6     2     3    1
     7     2     4   ar
     8     4     5   ar
     9     5    13    1
    10    13    14    2
    11    13    15   am
    12    17    15    1
    13    17    18    1
    14    18    19    1
    15    19    20    1
    16    20    21    1
    17    20    22    1
    18    22    23    1
    19     5     6   ar
    20     6     7   ar
    21     7    25    1
    22    25    26    1
    23    26    27    1
    24    26    28    1
    25    28    29   ar
    26    29    30   ar
    27    30    31   ar
    28    31    32   ar
    29    32    33   ar
    30     7     1   ar
    31    33    28   ar
    32    23    17    1
    33    11    12    1
    34    15    16    1
    35    21    24    1
@<TRIPOS>MOLECULE
*****
 33 35 0 0 0
SMALL
GASTEIGER

@<TRIPOS>ATOM
      1 C         141.3771  144.8966  161.6973 C.ar    1  UNL1        0.1125
      2 C         140.2200  145.0537  162.6388 C.ar    1  UNL1        0.1566
      3 F         139.0351  145.8823  162.2392 F       1  UNL1       -0.2028
      4 C         140.2477  144.3823  163.9798 C.ar    1  UNL1        0.0356
      5 C         141.4325  143.5537  164.3794 C.ar    1  UNL1        0.0587
      6 C         142.5896  143.3966  163.4380 C.ar    1  UNL1        0.0429
      7 C         142.5619  144.0680  162.0969 C.ar    1  UNL1        0.1545
      8 C         140.3507  145.7821  157.9674 C.3     1  UNL1        0.0949
      9 C         140.3784  145.1107  159.3085 C.2     1  UNL1        0.2267
     10 O         139.4350  143.9819  159.6017 O.2     1  UNL1       -0.2748
     11 N         141.3494  145.5680  160.3563 N.am    1  UNL1       -0.2798
     12 H         141.9686  146.3088  160.1638 H       1  UNL1        0.1550
     13 C         141.4602  142.8823  165.7205 C.2     1  UNL1        0.2460
     14 O         142.6804  142.1263  166.1557 O.2     1  UNL1       -0.2701
     15 N         140.2676  142.9668  166.6263 N.am    1  UNL1       -0.3025
     16 H         139.4667  143.4630  166.3407 H       1  UNL1        0.1497
     17 C         140.2953  142.2954  167.9674 C.3     1  UNL1        0.0720
     18 C         140.5267  143.1068  169.2077 C.3     1  UNL1        0.0221
     19 C         140.5543  142.4353  170.5488 C.3     1  UNL1        0.0309
     20 C         140.3507  140.9526  170.6495 C.3     1  UNL1        0.1106
     21 O         140.3784  140.2812  171.9905 O.3     1  UNL1       -0.3845
     22 C         140.1193  140.1414  169.4092 C.3     1  UNL1        0.0309
     23 C         140.0916  140.8128  168.0682 C.3     1  UNL1        0.0221
     24 H         140.5374  140.9439  172.6807 H       1  UNL1        0.2103
     25 O         143.7191  143.9108  161.1554 O.3     1  UNL1       -0.4734
     26 C         144.1982  142.5404  160.7782 C.3     1  UNL1        0.1883
     27 C         144.4636  142.2083  159.3396 C.3     1  UNL1        0.0523
     28 C         144.4119  141.5021  161.8394 C.ar    1  UNL1        0.0172
     29 C         145.3860  141.7558  162.9516 C.ar    1  UNL1       -0.0008
     30 C         145.5997  140.7174  164.0128 C.ar    1  UNL1       -0.0002
     31 C         144.8394  139.4254  163.9618 C.ar    1  UNL1       -0.0000
     32 C         143.8654  139.1717  162.8496 C.ar    1  UNL1       -0.0002
     33 C         143.6516  140.2101  161.7884 C.ar    1  UNL1       -0.0008
@<TRIPOS>BOND
     1     8     9    1
     2     9    10    2
     3     9    11   am
     4    11     1    1
     5     1     2   ar
     6     2     3    1
     7     2     4   ar
     8     4     5   ar
     9     5    13    1
    10    13    14    2
    11    13    15   am
    12    17    15    1
    13    17    18    1
    14    18    19    1
    15    19    20    1
    16    20    21    1
    17    20    22    1
    18    22    23    1
    19     5     6   ar
    20     6     7   ar
    21     7    25    1
    22    25    26    1
    23    26    27    1
    24    26    28    1
    25    28    29   ar
    26    29    30   ar
    27    30    31   ar
    28    31    32   ar
    29    32    33   ar
    30     7     1   ar
    31    33    28   ar
    32    23    17    1
    33    11    12    1
    34    15    16    1
    35    21    24    1
@<TRIPOS>MOLECULE
*****
 33 35 0 0 0
SMALL
GASTEIGER

@<TRIPOS>ATOM
      1 C         141.1853  145.2203  160.8761 C.ar    1  UNL1        0.1125
      2 C         139.9626  145.7252  161.5833 C.ar    1  UNL1        0.1566
      3 F         139.1754  146.8618  161.0014 F       1  UNL1       -0.2028
      4 C         139.5272  145.0936  162.8722 C.ar    1  UNL1        0.0356
      5 C         140.3143  143.9571  163.4541 C.ar    1  UNL1        0.0587
      6 C         141.5370  143.4521  162.7469 C.ar    1  UNL1        0.0429
      7 C         141.9725  144.0837  161.4580 C.ar    1  UNL1        0.1545
      8 C         141.5033  145.9870  156.9953 C.3     1  UNL1        0.0949
      9 C         141.0678  145.3554  158.2843 C.2     1  UNL1        0.2267
     10 O         140.0793  144.2272  158.2702 O.2     1  UNL1       -0.2748
     11 N         141.6208  145.8519  159.5872 N.am    1  UNL1       -0.2798
     12 H         142.2696  146.5923  159.5963 H       1  UNL1        0.1550
     13 C         139.8788  143.3255  164.7430 C.2     1  UNL1        0.2460
     14 O         138.4676  143.4951  165.2221 O.2     1  UNL1       -0.2701
     15 N         140.8546  142.5242  165.5529 N.am    1  UNL1       -0.3025
     16 H         141.7808  142.4128  165.2384 H       1  UNL1        0.1497
     17 C         140.4191  141.8926  166.8418 C.3     1  UNL1        0.0720
     18 C         139.8330  140.5118  166.8400 C.3     1  UNL1        0.0221
     19 C         139.3975  139.8802  168.1290 C.3     1  UNL1        0.0309
     20 C         139.5481  140.6294  169.4198 C.3     1  UNL1        0.1106
     21 O         139.1126  139.9978  170.7087 O.3     1  UNL1       -0.3845
     22 C         140.1341  142.0102  169.4215 C.3     1  UNL1        0.0309
     23 C         140.5696  142.6418  168.1326 C.3     1  UNL1        0.0221
     24 H         138.7595  139.1119  170.5316 H       1  UNL1        0.2103
     25 O         143.1952  143.5787  160.7508 O.3     1  UNL1       -0.4734
     26 C         143.4644  142.1049  160.6779 C.3     1  UNL1        0.1883
     27 C         143.1273  141.3417  159.4312 C.3     1  UNL1        0.0523
     28 C         144.0707  141.3942  161.8514 C.ar    1  UNL1        0.0172
     29 C         145.0928  142.0881  162.7022 C.ar    1  UNL1       -0.0008
     30 C         145.6991  141.3774  163.8758 C.ar    1  UNL1       -0.0002
     31 C         145.2832  139.9728  164.1986 C.ar    1  UNL1       -0.0000
     32 C         144.2611  139.2789  163.3479 C.ar    1  UNL1       -0.0002
     33 C         143.6549  139.9896  162.1743 C.ar    1  UNL1       -0.0008
@<TRIPOS>BOND
     1     8     9    1
     2     9    10    2
     3     9    11   am
     4    11     1    1
     5     1     2   ar
     6     2     3    1
     7     2     4   ar
     8     4     5   ar
     9     5    13    1
    10    13    14    2
    11    13    15   am
    12    17    15    1
    13    17    18    1
    14    18    19    1
    15    19    20    1
    16    20    21    1
    17    20    22    1
    18    22    23    1
    19     5     6   ar
    20     6     7   ar
    21     7    25    1
    22    25    26    1
    23    26    27    1
    24    26    28    1
    25    28    29   ar
    26    29    30   ar
    27    30    31   ar
    28    31    32   ar
    29    32    33   ar
    30     7     1   ar
    31    33    28   ar
    32    23    17    1
    33    11    12    1
    34    15    16    1
    35    21    24    1
@<TRIPOS>MOLECULE
*****
 33 35 0 0 0
SMALL
GASTEIGER

@<TRIPOS>ATOM
      1 C         139.9299  144.0997  161.4600 C.ar    1  UNL1        0.1125
      2 C         140.0872  145.1133  162.5545 C.ar    1  UNL1        0.1566
      3 F         139.9211  146.5735  162.2541 F       1  UNL1       -0.2028
      4 C         140.4107  144.6666  163.9495 C.ar    1  UNL1        0.0356
      5 C         140.5768  143.2065  164.2500 C.ar    1  UNL1        0.0587
      6 C         140.4194  142.1930  163.1555 C.ar    1  UNL1        0.0429
      7 C         140.0960  142.6396  161.7605 C.ar    1  UNL1        0.1545
      8 C         140.3741  145.4940  157.7711 C.3     1  UNL1        0.0949
      9 C         140.6975  145.0474  159.1660 C.2     1  UNL1        0.2267
     10 O         142.1122  145.1018  159.6619 O.2     1  UNL1       -0.2748
     11 N         139.6064  144.5463  160.0651 N.am    1  UNL1       -0.2798
     12 H         138.6780  144.5106  159.7396 H       1  UNL1        0.1550
     13 C         140.9002  142.7599  165.6449 C.2     1  UNL1        0.2460
     14 O         140.0934  143.2703  166.8019 O.2     1  UNL1       -0.2701
     15 N         142.0304  141.8029  165.8829 N.am    1  UNL1       -0.3025
     16 H         142.5600  141.4679  165.1236 H       1  UNL1        0.1497
     17 C         142.3539  141.3563  167.2779 C.3     1  UNL1        0.0720
     18 C         141.9600  139.9833  167.7361 C.3     1  UNL1        0.0221
     19 C         142.2835  139.5367  169.1311 C.3     1  UNL1        0.0309
     20 C         143.0008  140.4630  170.0678 C.3     1  UNL1        0.1106
     21 O         143.3242  140.0164  171.4628 O.3     1  UNL1       -0.3845
     22 C         143.3946  141.8359  169.6096 C.3     1  UNL1        0.0309
     23 C         143.0711  142.2826  168.2146 C.3     1  UNL1        0.0221
     24 H         143.0028  139.1108  171.5950 H       1  UNL1        0.2103
     25 O         139.9386  141.6260  160.6660 O.3     1  UNL1       -0.4734
     26 C         139.1788  140.3582  160.9215 C.3     1  UNL1        0.1883
     27 C         137.8246  140.1587  160.3078 C.3     1  UNL1        0.0523
     28 C         139.7731  139.2897  161.7905 C.ar    1  UNL1        0.0172
     29 C         141.1681  138.8026  161.5322 C.ar    1  UNL1       -0.0008
     30 C         141.7624  137.7342  162.4012 C.ar    1  UNL1       -0.0002
     31 C         140.9617  137.1529  163.5287 C.ar    1  UNL1       -0.0000
     32 C         139.5667  137.6401  163.7870 C.ar    1  UNL1       -0.0002
     33 C         138.9724  138.7085  162.9179 C.ar    1  UNL1       -0.0008
@<TRIPOS>BOND
     1     8     9    1
     2     9    10    2
     3     9    11   am
     4    11     1    1
     5     1     2   ar
     6     2     3    1
     7     2     4   ar
     8     4     5   ar
     9     5    13    1
    10    13    14    2
    11    13    15   am
    12    17    15    1
    13    17    18    1
    14    18    19    1
    15    19    20    1
    16    20    21    1
    17    20    22    1
    18    22    23    1
    19     5     6   ar
    20     6     7   ar
    21     7    25    1
    22    25    26    1
    23    26    27    1
    24    26    28    1
    25    28    29   ar
    26    29    30   ar
    27    30    31   ar
    28    31    32   ar
    29    32    33   ar
    30     7     1   ar
    31    33    28   ar
    32    23    17    1
    33    11    12    1
    34    15    16    1
    35    21    24    1
@<TRIPOS>MOLECULE
*****
 33 35 0 0 0
SMALL
GASTEIGER

@<TRIPOS>ATOM
      1 C         139.5343  138.6683  161.2440 C.ar    1  UNL1        0.1125
      2 C         138.2582  139.1968  161.8291 C.ar    1  UNL1        0.1566
      3 F         137.0307  139.3082  160.9741 F       1  UNL1       -0.2028
      4 C         138.2095  139.6138  163.2691 C.ar    1  UNL1        0.0356
      5 C         139.4369  139.5025  164.1241 C.ar    1  UNL1        0.0587
      6 C         140.7130  138.9740  163.5391 C.ar    1  UNL1        0.0429
      7 C         140.7617  138.5569  162.0990 C.ar    1  UNL1        0.1545
      8 C         139.7662  138.8699  157.2873 C.3     1  UNL1        0.0949
      9 C         139.7175  139.2869  158.7274 C.2     1  UNL1        0.2267
     10 O         139.8033  140.7398  159.0907 O.2     1  UNL1       -0.2748
     11 N         139.5830  138.2512  159.8040 N.am    1  UNL1       -0.2798
     12 H         139.5267  137.2977  159.5655 H       1  UNL1        0.1550
     13 C         139.3882  139.9195  165.5641 C.2     1  UNL1        0.2460
     14 O         138.1559  139.6599  166.3789 O.2     1  UNL1       -0.2701
     15 N         140.5719  140.5962  166.1894 N.am    1  UNL1       -0.3025
     16 H         141.3807  140.7666  165.6546 H       1  UNL1        0.1497
     17 C         140.5232  141.0133  167.6294 C.3     1  UNL1        0.0720
     18 C         140.5163  139.9743  168.7114 C.3     1  UNL1        0.0221
     19 C         140.4676  140.3913  170.1514 C.3     1  UNL1        0.0309
     20 C         140.4258  141.8474  170.5095 C.3     1  UNL1        0.1106
     21 O         140.3771  142.2645  171.9495 O.3     1  UNL1       -0.3845
     22 C         140.4326  142.8863  169.4276 C.3     1  UNL1        0.0309
     23 C         140.4813  142.4693  167.9876 C.3     1  UNL1        0.0221
     24 H         140.3789  141.4762  172.5147 H       1  UNL1        0.2103
     25 O         142.0379  138.0284  161.5140 O.3     1  UNL1       -0.4734
     26 C         143.0714  138.9791  160.9868 C.3     1  UNL1        0.1883
     27 C         143.2551  139.1422  159.5070 C.3     1  UNL1        0.0523
     28 C         143.9214  139.7666  161.9394 C.ar    1  UNL1        0.0172
     29 C         144.3856  141.1438  161.5676 C.ar    1  UNL1       -0.0008
     30 C         145.2355  141.9313  162.5201 C.ar    1  UNL1       -0.0002
     31 C         145.6213  141.3418  163.8444 C.ar    1  UNL1       -0.0000
     32 C         145.1571  139.9647  164.2161 C.ar    1  UNL1       -0.0002
     33 C         144.3071  139.1772  163.2636 C.ar    1  UNL1       -0.0008
@<TRIPOS>BOND
     1     8     9    1
     2     9    10    2
     3     9    11   am
     4    11     1    1
     5     1     2   ar
     6     2     3    1
     7     2     4   ar
     8     4     5   ar
     9     5    13    1
    10    13    14    2
    11    13    15   am
    12    17    15    1
    13    17    18    1
    14    18    19    1
    15    19    20    1
    16    20    21    1
    17    20    22    1
    18    22    23    1
    19     5     6   ar
    20     6     7   ar
    21     7    25    1
    22    25    26    1
    23    26    27    1
    24    26    28    1
    25    28    29   ar
    26    29    30   ar
    27    30    31   ar
    28    31    32   ar
    29    32    33   ar
    30     7     1   ar
    31    33    28   ar
    32    23    17    1
    33    11    12    1
    34    15    16    1
    35    21    24    1
@<TRIPOS>MOLECULE
*****
 33 35 0 0 0
SMALL
GASTEIGER

@<TRIPOS>ATOM
      1 C         141.6079  144.8287  161.3407 C.ar    1  UNL1        0.1125
      2 C         140.7757  145.4185  162.4405 C.ar    1  UNL1        0.1566
      3 F         139.9266  146.6260  162.1734 F       1  UNL1       -0.2028
      4 C         140.7925  144.8009  163.8073 C.ar    1  UNL1        0.0356
      5 C         141.6415  143.5935  164.0744 C.ar    1  UNL1        0.0587
      6 C         142.4737  143.0037  162.9746 C.ar    1  UNL1        0.0429
      7 C         142.4569  143.6213  161.6078 C.ar    1  UNL1        0.1545
      8 C         140.4773  145.7218  157.6428 C.3     1  UNL1        0.0949
      9 C         140.4941  145.1043  159.0097 C.2     1  UNL1        0.2267
     10 O         139.4138  144.1446  159.4124 O.2     1  UNL1       -0.2748
     11 N         141.5911  145.4463  159.9738 N.am    1  UNL1       -0.2798
     12 H         142.3001  146.0761  159.7095 H       1  UNL1        0.1550
     13 C         141.6583  142.9760  165.4413 C.2     1  UNL1        0.2460
     14 O         140.4382  143.0460  166.3110 O.2     1  UNL1       -0.2701
     15 N         142.8952  142.2883  165.9384 N.am    1  UNL1       -0.3025
     16 H         143.6960  142.2423  165.3676 H       1  UNL1        0.1497
     17 C         142.9120  141.6707  167.3053 C.3     1  UNL1        0.0720
     18 C         142.4200  140.2671  167.5002 C.3     1  UNL1        0.0221
     19 C         142.4368  139.6495  168.8670 C.3     1  UNL1        0.0309
     20 C         142.9456  140.4355  170.0390 C.3     1  UNL1        0.1106
     21 O         142.9624  139.8179  171.4058 O.3     1  UNL1       -0.3845
     22 C         143.4375  141.8391  169.8440 C.3     1  UNL1        0.0309
     23 C         143.4207  142.4566  168.4772 C.3     1  UNL1        0.0221
     24 H         142.6137  138.9141  171.3566 H       1  UNL1        0.2103
     25 O         143.2891  143.0315  160.5080 O.3     1  UNL1       -0.4734
     26 C         142.7834  141.8485  159.7368 C.3     1  UNL1        0.1883
     27 C         142.3699  142.0085  158.3037 C.3     1  UNL1        0.0523
     28 C         142.6911  140.5055  160.3985 C.ar    1  UNL1        0.0172
     29 C         141.3758  140.0219  160.9335 C.ar    1  UNL1       -0.0008
     30 C         141.2835  138.6789  161.5953 C.ar    1  UNL1       -0.0002
     31 C         142.5065  137.8196  161.7221 C.ar    1  UNL1       -0.0000
     32 C         143.8217  138.3033  161.1871 C.ar    1  UNL1       -0.0002
     33 C         143.9140  139.6463  160.5253 C.ar    1  UNL1       -0.0008
@<TRIPOS>BOND
     1     8     9    1
     2     9    10    2
     3     9    11   am
     4    11     1    1
     5     1     2   ar
     6     2     3    1
     7     2     4   ar
     8     4     5   ar
     9     5    13    1
    10    13    14    2
    11    13    15   am
    12    17    15    1
    13    17    18    1
    14    18    19    1
    15    19    20    1
    16    20    21    1
    17    20    22    1
    18    22    23    1
    19     5     6   ar
    20     6     7   ar
    21     7    25    1
    22    25    26    1
    23    26    27    1
    24    26    28    1
    25    28    29   ar
    26    29    30   ar
    27    30    31   ar
    28    31    32   ar
    29    32    33   ar
    30     7     1   ar
    31    33    28   ar
    32    23    17    1
    33    11    12    1
    34    15    16    1
    35    21    24    1
@<TRIPOS>MOLECULE
*****
 33 35 0 0 0
SMALL
GASTEIGER

@<TRIPOS>ATOM
      1 C         140.1386  137.8381  163.7267 C.ar    1  UNL1        0.1125
      2 C         139.4601  137.8717  162.3894 C.ar    1  UNL1        0.1566
      3 F         137.9691  137.7325  162.3011 F       1  UNL1       -0.2028
      4 C         140.2724  138.0446  161.1403 C.ar    1  UNL1        0.0356
      5 C         141.7633  138.1838  161.2286 C.ar    1  UNL1        0.0587
      6 C         142.4418  138.1501  162.5659 C.ar    1  UNL1        0.0429
      7 C         141.6294  137.9773  163.8150 C.ar    1  UNL1        0.1545
      8 C         137.8198  138.6726  166.8375 C.3     1  UNL1        0.0949
      9 C         138.6322  138.8454  165.5884 C.2     1  UNL1        0.2267
     10 O         138.7506  140.1986  164.9520 O.2     1  UNL1       -0.2748
     11 N         139.3262  137.6652  164.9758 N.am    1  UNL1       -0.2798
     12 H         139.2485  136.7771  165.3934 H       1  UNL1        0.1550
     13 C         142.5757  138.3566  159.9795 C.2     1  UNL1        0.2460
     14 O         144.0311  138.7069  160.0739 O.2     1  UNL1       -0.2701
     15 N         141.9327  138.1792  158.6360 N.am    1  UNL1       -0.3025
     16 H         140.9774  137.9493  158.5741 H       1  UNL1        0.1497
     17 C         142.7450  138.3521  157.3870 C.3     1  UNL1        0.0720
     18 C         143.1922  137.1490  156.6107 C.3     1  UNL1        0.0221
     19 C         144.0046  137.3218  155.3616 C.3     1  UNL1        0.0309
     20 C         144.3698  138.6978  154.8889 C.3     1  UNL1        0.1106
     21 O         145.1822  138.8707  153.6398 O.3     1  UNL1       -0.3845
     22 C         143.9226  139.9008  155.6652 C.3     1  UNL1        0.0309
     23 C         143.1102  139.7280  156.9142 C.3     1  UNL1        0.0221
     24 H         145.3862  138.0001  153.2637 H       1  UNL1        0.2103
     25 O         142.3080  137.9436  165.1523 O.3     1  UNL1       -0.4734
     26 C         142.5652  139.2211  165.8952 C.3     1  UNL1        0.1883
     27 C         141.9322  139.4496  167.2358 C.3     1  UNL1        0.0523
     28 C         143.4554  140.2701  165.2975 C.ar    1  UNL1        0.0172
     29 C         143.1070  141.7217  165.4441 C.ar    1  UNL1       -0.0008
     30 C         143.9972  142.7707  164.8464 C.ar    1  UNL1       -0.0002
     31 C         145.2358  142.3680  164.1022 C.ar    1  UNL1       -0.0000
     32 C         145.5841  140.9164  163.9557 C.ar    1  UNL1       -0.0002
     33 C         144.6940  139.8675  164.5533 C.ar    1  UNL1       -0.0008
@<TRIPOS>BOND
     1     8     9    1
     2     9    10    2
     3     9    11   am
     4    11     1    1
     5     1     2   ar
     6     2     3    1
     7     2     4   ar
     8     4     5   ar
     9     5    13    1
    10    13    14    2
    11    13    15   am
    12    17    15    1
    13    17    18    1
    14    18    19    1
    15    19    20    1
    16    20    21    1
    17    20    22    1
    18    22    23    1
    19     5     6   ar
    20     6     7   ar
    21     7    25    1
    22    25    26    1
    23    26    27    1
    24    26    28    1
    25    28    29   ar
    26    29    30   ar
    27    30    31   ar
    28    31    32   ar
    29    32    33   ar
    30     7     1   ar
    31    33    28   ar
    32    23    17    1
    33    11    12    1
    34    15    16    1
    35    21    24    1
@<TRIPOS>MOLECULE
*****
 33 35 0 0 0
SMALL
GASTEIGER

@<TRIPOS>ATOM
      1 C         141.5860  144.8827  161.5939 C.ar    1  UNL1        0.1125
      2 C         140.5585  145.2689  162.6162 C.ar    1  UNL1        0.1566
      3 F         139.5017  146.2769  162.2738 F       1  UNL1       -0.2028
      4 C         140.5877  144.6471  163.9810 C.ar    1  UNL1        0.0356
      5 C         141.6444  143.6391  164.3234 C.ar    1  UNL1        0.0587
      6 C         142.6719  143.2530  163.3012 C.ar    1  UNL1        0.0429
      7 C         142.6427  143.8747  161.9364 C.ar    1  UNL1        0.1545
      8 C         140.4519  145.7471  157.8904 C.3     1  UNL1        0.0949
      9 C         140.4811  145.1253  159.2551 C.2     1  UNL1        0.2267
     10 O         139.4344  144.1242  159.6457 O.2     1  UNL1       -0.2748
     11 N         141.5568  145.5045  160.2292 N.am    1  UNL1       -0.2798
     12 H         142.2437  146.1615  159.9728 H       1  UNL1        0.1550
     13 C         141.6736  143.0174  165.6882 C.2     1  UNL1        0.2460
     14 O         142.9623  142.4875  166.2435 O.2     1  UNL1       -0.2701
     15 N         140.4141  142.9254  166.4976 N.am    1  UNL1       -0.3025
     16 H         139.5682  143.2732  166.1331 H       1  UNL1        0.1497
     17 C         140.4433  142.3036  167.8623 C.3     1  UNL1        0.0720
     18 C         140.5258  143.1738  169.0813 C.3     1  UNL1        0.0221
     19 C         140.5550  142.5520  170.4461 C.3     1  UNL1        0.0309
     20 C         140.5016  141.0600  170.5918 C.3     1  UNL1        0.1106
     21 O         140.5308  140.4382  171.9565 O.3     1  UNL1       -0.3845
     22 C         140.4191  140.1899  169.3728 C.3     1  UNL1        0.0309
     23 C         140.3899  140.8117  168.0080 C.3     1  UNL1        0.0221
     24 H         140.5850  141.1357  172.6285 H       1  UNL1        0.2103
     25 O         143.6703  143.4885  160.9141 O.3     1  UNL1       -0.4734
     26 C         143.4719  142.2584  160.0790 C.3     1  UNL1        0.1883
     27 C         143.9283  140.9237  160.5893 C.3     1  UNL1        0.0523
     28 C         142.8171  142.3630  158.7335 C.ar    1  UNL1        0.0172
     29 C         141.5428  141.6203  158.4598 C.ar    1  UNL1       -0.0008
     30 C         140.8880  141.7249  157.1143 C.ar    1  UNL1       -0.0002
     31 C         141.5074  142.5721  156.0426 C.ar    1  UNL1       -0.0000
     32 C         142.7816  143.3147  156.3163 C.ar    1  UNL1       -0.0002
     33 C         143.4364  143.2101  157.6618 C.ar    1  UNL1       -0.0008
@<TRIPOS>BOND
     1     8     9    1
     2     9    10    2
     3     9    11   am
     4    11     1    1
     5     1     2   ar
     6     2     3    1
     7     2     4   ar
     8     4     5   ar
     9     5    13    1
    10    13    14    2
    11    13    15   am
    12    17    15    1
    13    17    18    1
    14    18    19    1
    15    19    20    1
    16    20    21    1
    17    20    22    1
    18    22    23    1
    19     5     6   ar
    20     6     7   ar
    21     7    25    1
    22    25    26    1
    23    26    27    1
    24    26    28    1
    25    28    29   ar
    26    29    30   ar
    27    30    31   ar
    28    31    32   ar
    29    32    33   ar
    30     7     1   ar
    31    33    28   ar
    32    23    17    1
    33    11    12    1
    34    15    16    1
    35    21    24    1
@<TRIPOS>MOLECULE
*****
 33 35 0 0 0
SMALL
GASTEIGER

@<TRIPOS>ATOM
      1 C         138.2324  140.7994  161.6044 C.ar    1  UNL1        0.1125
      2 C         138.3050  139.6044  162.5080 C.ar    1  UNL1        0.1566
      3 F         137.8549  138.2616  162.0135 F       1  UNL1       -0.2028
      4 C         138.8277  139.7521  163.9062 C.ar    1  UNL1        0.0356
      5 C         139.2779  141.0947  164.4008 C.ar    1  UNL1        0.0587
      6 C         139.2053  142.2897  163.4971 C.ar    1  UNL1        0.0429
      7 C         138.6825  142.1420  162.0989 C.ar    1  UNL1        0.1545
      8 C         138.1420  140.4409  157.6530 C.3     1  UNL1        0.0949
      9 C         138.6647  140.5886  159.0512 C.2     1  UNL1        0.2267
     10 O         140.1425  140.6731  159.2944 O.2     1  UNL1       -0.2748
     11 N         137.7097  140.6517  160.2062 N.am    1  UNL1       -0.2798
     12 H         136.7398  140.5962  160.0465 H       1  UNL1        0.1550
     13 C         139.8006  141.2424  165.7990 C.2     1  UNL1        0.2460
     14 O         139.9570  142.6073  166.4009 O.2     1  UNL1       -0.2701
     15 N         140.1668  140.0251  166.5952 N.am    1  UNL1       -0.3025
     16 H         140.0641  139.1292  166.2001 H       1  UNL1        0.1497
     17 C         140.6895  140.1728  167.9934 C.3     1  UNL1        0.0720
     18 C         139.7347  140.2312  169.1488 C.3     1  UNL1        0.0221
     19 C         140.2574  140.3789  170.5470 C.3     1  UNL1        0.0309
     20 C         141.7350  140.4682  170.7898 C.3     1  UNL1        0.1106
     21 O         142.2577  140.6158  172.1880 O.3     1  UNL1       -0.3845
     22 C         142.6897  140.4098  169.6344 C.3     1  UNL1        0.0309
     23 C         142.1670  140.2621  168.2362 C.3     1  UNL1        0.0221
     24 H         141.5142  140.6368  172.8106 H       1  UNL1        0.2103
     25 O         138.6099  143.3371  161.1952 O.3     1  UNL1       -0.4734
     26 C         139.8679  143.9290  160.6319 C.3     1  UNL1        0.1883
     27 C         139.9704  144.2136  159.1627 C.3     1  UNL1        0.0523
     28 C         141.0233  144.2362  161.5378 C.ar    1  UNL1        0.0172
     29 C         140.8566  145.2188  162.6590 C.ar    1  UNL1       -0.0008
     30 C         142.0120  145.5260  163.5648 C.ar    1  UNL1       -0.0002
     31 C         143.3341  144.8508  163.3495 C.ar    1  UNL1       -0.0000
     32 C         143.5007  143.8683  162.2284 C.ar    1  UNL1       -0.0002
     33 C         142.3453  143.5610  161.3225 C.ar    1  UNL1       -0.0008
@<TRIPOS>BOND
     1     8     9    1
     2     9    10    2
     3     9    11   am
     4    11     1    1
     5     1     2   ar
     6     2     3    1
     7     2     4   ar
     8     4     5   ar
     9     5    13    1
    10    13    14    2
    11    13    15   am
    12    17    15    1
    13    17    18    1
    14    18    19    1
    15    19    20    1
    16    20    21    1
    17    20    22    1
    18    22    23    1
    19     5     6   ar
    20     6     7   ar
    21     7    25    1
    22    25    26    1
    23    26    27    1
    24    26    28    1
    25    28    29   ar
    26    29    30   ar
    27    30    31   ar
    28    31    32   ar
    29    32    33   ar
    30     7     1   ar
    31    33    28   ar
    32    23    17    1
    33    11    12    1
    34    15    16    1
    35    21    24    1
