@<TRIPOS>MOLECULE
*****
 41 45 0 0 0
SMALL
GASTEIGER

@<TRIPOS>ATOM
      1 C         141.6243  139.0389  158.7348 C.3     1  UNL1        0.1031
      2 C         141.8035  136.2164  155.2346 C.ar    1  UNL1        0.0536
      3 C         143.0502  136.5358  156.0050 C.ar    1  UNL1        0.0042
      4 C         142.9905  137.4767  157.1718 C.ar    1  UNL1       -0.0025
      5 C         141.6840  138.0981  157.5680 C.ar    1  UNL1       -0.0036
      6 C         140.4373  137.7787  156.7976 C.ar    1  UNL1       -0.0025
      7 C         140.4971  136.8379  155.6308 C.ar    1  UNL1        0.0042
      8 N         141.7833  133.7949  154.2935 N.am    1  UNL1       -0.2761
      9 C         141.8632  135.2756  154.0678 C.2     1  UNL1        0.2490
     10 O         142.0029  135.8155  152.6754 O.2     1  UNL1       -0.2699
     11 C         142.7945  131.6946  153.1462 C.3     1  UNL1        0.0233
     12 C         141.8430  132.8541  153.1267 C.3     1  UNL1        0.0938
     13 C         141.6435  133.2549  155.6860 C.3     1  UNL1        0.0938
     14 C         142.8648  132.8702  156.4673 C.3     1  UNL1        0.0233
     15 C         142.1762  140.4278  158.6073 C.ar    1  UNL1       -0.0024
     16 C         142.6557  140.9250  157.2758 C.ar    1  UNL1       -0.0026
     17 C         143.2076  142.3139  157.1483 C.ar    1  UNL1        0.0010
     18 C         143.2800  143.2057  158.3523 C.ar    1  UNL1        0.0147
     19 C         142.8006  142.7085  159.6838 C.ar    1  UNL1        0.0500
     20 C         142.2486  141.3195  159.8113 C.ar    1  UNL1        0.0120
     21 N         142.8730  143.6002  160.8878 N.am    1  UNL1       -0.2839
     22 C         143.7995  143.2611  162.0176 C.2     1  UNL1        0.2256
     23 O         144.6536  142.0302  161.9435 O.2     1  UNL1       -0.2748
     24 H         142.3124  144.4081  160.9364 H       1  UNL1        0.1549
     25 C         143.8719  144.1528  163.2216 C.3     1  UNL1        0.0768
     26 C         143.6919  145.5022  163.8513 C.3     1  UNL1        0.0096
     27 C         144.1773  144.3479  164.6771 C.3     1  UNL1        0.0096
     28 N         141.0127  138.5908  160.0290 N.3     1  UNL1       -0.2644
     29 C         139.5362  138.7353  160.2505 C.3     1  UNL1        0.0901
     30 C         138.9246  138.2871  161.5448 C.3     1  UNL1        0.0899
     31 N         139.7894  137.6946  162.6176 N.3     1  UNL1       -0.2665
     32 C         141.2659  137.5501  162.3961 C.3     1  UNL1        0.0899
     33 C         141.8776  137.9982  161.1018 C.3     1  UNL1        0.0901
     34 C         139.1778  137.2464  163.9119 C.3     1  UNL1        0.0992
     35 C         139.2457  138.1328  165.1201 C.ar    1  UNL1       -0.0060
     36 C         140.4572  138.9847  165.3581 C.ar    1  UNL1       -0.0006
     37 C         140.5251  139.8711  166.5663 C.ar    1  UNL1        0.0294
     38 C         139.3815  139.9057  167.5364 C.ar    1  UNL1        0.1401
     39 F         139.4494  140.7921  168.7446 F       1  UNL1       -0.2042
     40 C         138.1701  139.0538  167.2983 C.ar    1  UNL1        0.0294
     41 C         138.1022  138.1674  166.0901 C.ar    1  UNL1       -0.0006
@<TRIPOS>BOND
     1    11    12    1
     2    12     8    1
     3     8    13    1
     4    13    14    1
     5     8     9   am
     6     9    10    2
     7     9     2    1
     8     2     3   ar
     9     3     4   ar
    10     4     5   ar
    11     5     1    1
    12     1    15    1
    13    15    16   ar
    14    16    17   ar
    15    17    18   ar
    16    18    19   ar
    17    19    21    1
    18    21    22   am
    19    22    23    2
    20    22    25    1
    21    25    26    1
    22    26    27    1
    23    19    20   ar
    24     1    28    1
    25    28    29    1
    26    29    30    1
    27    30    31    1
    28    31    34    1
    29    34    35    1
    30    35    36   ar
    31    36    37   ar
    32    37    38   ar
    33    38    39    1
    34    38    40   ar
    35    40    41   ar
    36    31    32    1
    37    32    33    1
    38     5     6   ar
    39     6     7   ar
    40     7     2   ar
    41    20    15   ar
    42    33    28    1
    43    27    25    1
    44    41    35   ar
    45    21    24    1
@<TRIPOS>MOLECULE
*****
 41 45 0 0 0
SMALL
GASTEIGER

@<TRIPOS>ATOM
      1 C         140.4168  139.3203  157.8661 C.3     1  UNL1        0.1031
      2 C         140.0433  143.7583  157.2224 C.ar    1  UNL1        0.0536
      3 C         141.3274  143.0577  156.8903 C.ar    1  UNL1        0.0042
      4 C         141.4518  141.5784  157.1049 C.ar    1  UNL1       -0.0025
      5 C         140.2923  140.7996  157.6515 C.ar    1  UNL1       -0.0036
      6 C         139.0082  141.5002  157.9836 C.ar    1  UNL1       -0.0025
      7 C         138.8837  142.9796  157.7690 C.ar    1  UNL1        0.0042
      8 N         139.2871  145.7630  155.7529 N.am    1  UNL1       -0.2761
      9 C         139.9188  145.2377  157.0078 C.2     1  UNL1        0.2490
     10 O         140.4261  146.1917  158.0481 O.2     1  UNL1       -0.2699
     11 C         139.8936  147.9000  154.4055 C.3     1  UNL1        0.0233
     12 C         139.1626  147.2423  155.5383 C.3     1  UNL1        0.0938
     13 C         138.7797  144.8089  154.7124 C.3     1  UNL1        0.0938
     14 C         137.3169  144.4846  154.6417 C.3     1  UNL1        0.0233
     15 C         140.4186  138.3894  156.6900 C.ar    1  UNL1       -0.0024
     16 C         139.8191  138.8267  155.3863 C.ar    1  UNL1       -0.0026
     17 C         139.8209  137.8958  154.2102 C.ar    1  UNL1        0.0010
     18 C         140.4222  136.5275  154.3376 C.ar    1  UNL1        0.0147
     19 C         141.0217  136.0902  155.6412 C.ar    1  UNL1        0.0500
     20 C         141.0199  137.0211  156.8174 C.ar    1  UNL1        0.0120
     21 N         141.6229  134.7219  155.7686 N.am    1  UNL1       -0.2839
     22 C         143.1087  134.5431  155.6664 C.2     1  UNL1        0.2256
     23 O         143.9933  135.7326  155.4367 O.2     1  UNL1       -0.2748
     24 H         141.0424  133.9412  155.9193 H       1  UNL1        0.1549
     25 C         143.7100  133.1748  155.7938 C.3     1  UNL1        0.0768
     26 C         144.7350  132.2568  156.3909 C.3     1  UNL1        0.0096
     27 C         143.7264  131.7229  155.4174 C.3     1  UNL1        0.0096
     28 N         140.5394  138.7719  159.2568 N.3     1  UNL1       -0.2644
     29 C         141.8954  138.5300  159.8508 C.3     1  UNL1        0.0901
     30 C         142.0180  137.9816  161.2416 C.3     1  UNL1        0.0899
     31 N         140.7847  137.6750  162.0383 N.3     1  UNL1       -0.2665
     32 C         139.4287  137.9168  161.4444 C.3     1  UNL1        0.0899
     33 C         139.3060  138.4653  160.0537 C.3     1  UNL1        0.0901
     34 C         140.9073  137.1265  163.4291 C.3     1  UNL1        0.0992
     35 C         140.4715  137.9532  164.6024 C.ar    1  UNL1       -0.0060
     36 C         141.4579  138.8402  165.3028 C.ar    1  UNL1       -0.0006
     37 C         141.0221  139.6669  166.4761 C.ar    1  UNL1        0.0294
     38 C         139.5998  139.6066  166.9491 C.ar    1  UNL1        0.1401
     39 F         139.1640  140.4332  168.1224 F       1  UNL1       -0.2042
     40 C         138.6135  138.7196  166.2488 C.ar    1  UNL1        0.0294
     41 C         139.0493  137.8930  165.0755 C.ar    1  UNL1       -0.0006
@<TRIPOS>BOND
     1    11    12    1
     2    12     8    1
     3     8    13    1
     4    13    14    1
     5     8     9   am
     6     9    10    2
     7     9     2    1
     8     2     3   ar
     9     3     4   ar
    10     4     5   ar
    11     5     1    1
    12     1    15    1
    13    15    16   ar
    14    16    17   ar
    15    17    18   ar
    16    18    19   ar
    17    19    21    1
    18    21    22   am
    19    22    23    2
    20    22    25    1
    21    25    26    1
    22    26    27    1
    23    19    20   ar
    24     1    28    1
    25    28    29    1
    26    29    30    1
    27    30    31    1
    28    31    34    1
    29    34    35    1
    30    35    36   ar
    31    36    37   ar
    32    37    38   ar
    33    38    39    1
    34    38    40   ar
    35    40    41   ar
    36    31    32    1
    37    32    33    1
    38     5     6   ar
    39     6     7   ar
    40     7     2   ar
    41    20    15   ar
    42    33    28    1
    43    27    25    1
    44    41    35   ar
    45    21    24    1
@<TRIPOS>MOLECULE
*****
 41 45 0 0 0
SMALL
GASTEIGER

@<TRIPOS>ATOM
      1 C         139.8839  140.7596  157.0731 C.3     1  UNL1        0.1031
      2 C         140.1820  143.0366  160.9430 C.ar    1  UNL1        0.0536
      3 C         139.9038  143.7668  159.6627 C.ar    1  UNL1        0.0042
      4 C         139.8044  143.0078  158.3727 C.ar    1  UNL1       -0.0025
      5 C         139.9833  141.5186  158.3630 C.ar    1  UNL1       -0.0036
      6 C         140.2615  140.7884  159.6434 C.ar    1  UNL1       -0.0025
      7 C         140.3609  141.5474  160.9334 C.ar    1  UNL1        0.0042
      8 N         139.0762  143.9368  163.1148 N.am    1  UNL1       -0.2761
      9 C         140.2814  143.7956  162.2330 C.2     1  UNL1        0.2490
     10 O         141.5858  144.4134  162.6411 O.2     1  UNL1       -0.2699
     11 C         139.5556  143.9815  165.6679 C.3     1  UNL1        0.0233
     12 C         139.1756  144.6958  164.4048 C.3     1  UNL1        0.0938
     13 C         137.7717  143.3190  162.7067 C.3     1  UNL1        0.0938
     14 C         137.4051  141.9491  163.1955 C.3     1  UNL1        0.0233
     15 C         138.8032  141.0933  156.0878 C.ar    1  UNL1       -0.0024
     16 C         139.1597  141.4429  154.6733 C.ar    1  UNL1       -0.0026
     17 C         138.0790  141.7767  153.6881 C.ar    1  UNL1        0.0010
     18 C         136.6418  141.7608  154.1173 C.ar    1  UNL1        0.0147
     19 C         136.2853  141.4112  155.5317 C.ar    1  UNL1        0.0500
     20 C         137.3660  141.0774  156.5170 C.ar    1  UNL1        0.0120
     21 N         134.8481  141.3953  155.9609 N.am    1  UNL1       -0.2839
     22 C         134.0880  140.1025  155.9889 C.2     1  UNL1        0.2256
     23 O         134.7651  138.8255  155.5877 O.2     1  UNL1       -0.2748
     24 H         134.4037  142.2334  156.2242 H       1  UNL1        0.1549
     25 C         132.6508  140.0866  156.4181 C.3     1  UNL1        0.0768
     26 C         131.5756  139.5915  157.3394 C.3     1  UNL1        0.0096
     27 C         131.2367  140.5542  156.2402 C.3     1  UNL1        0.0096
     28 N         140.8652  139.6669  156.7683 N.3     1  UNL1       -0.2644
     29 C         142.3007  140.0034  156.4924 C.3     1  UNL1        0.0901
     30 C         143.2821  138.9106  156.1877 C.3     1  UNL1        0.0899
     31 N         142.8279  137.4813  156.1588 N.3     1  UNL1       -0.2665
     32 C         141.3924  137.1448  156.4346 C.3     1  UNL1        0.0899
     33 C         140.4111  138.2375  156.7394 C.3     1  UNL1        0.0901
     34 C         143.8092  136.3885  155.8540 C.3     1  UNL1        0.0992
     35 C         143.3594  134.9576  155.8453 C.ar    1  UNL1       -0.0060
     36 C         142.7782  134.3616  154.5974 C.ar    1  UNL1       -0.0006
     37 C         142.3284  132.9307  154.5887 C.ar    1  UNL1        0.0294
     38 C         142.4598  132.0957  155.8279 C.ar    1  UNL1        0.1401
     39 F         142.0100  130.6647  155.8193 F       1  UNL1       -0.2042
     40 C         143.0410  132.6916  157.0758 C.ar    1  UNL1        0.0294
     41 C         143.4908  134.1226  157.0844 C.ar    1  UNL1       -0.0006
@<TRIPOS>BOND
     1    11    12    1
     2    12     8    1
     3     8    13    1
     4    13    14    1
     5     8     9   am
     6     9    10    2
     7     9     2    1
     8     2     3   ar
     9     3     4   ar
    10     4     5   ar
    11     5     1    1
    12     1    15    1
    13    15    16   ar
    14    16    17   ar
    15    17    18   ar
    16    18    19   ar
    17    19    21    1
    18    21    22   am
    19    22    23    2
    20    22    25    1
    21    25    26    1
    22    26    27    1
    23    19    20   ar
    24     1    28    1
    25    28    29    1
    26    29    30    1
    27    30    31    1
    28    31    34    1
    29    34    35    1
    30    35    36   ar
    31    36    37   ar
    32    37    38   ar
    33    38    39    1
    34    38    40   ar
    35    40    41   ar
    36    31    32    1
    37    32    33    1
    38     5     6   ar
    39     6     7   ar
    40     7     2   ar
    41    20    15   ar
    42    33    28    1
    43    27    25    1
    44    41    35   ar
    45    21    24    1
@<TRIPOS>MOLECULE
*****
 41 45 0 0 0
SMALL
GASTEIGER

@<TRIPOS>ATOM
      1 C         140.3038  138.9825  157.7287 C.3     1  UNL1        0.1031
      2 C         140.2577  139.2182  162.2223 C.ar    1  UNL1        0.0536
      3 C         139.4377  138.1787  161.5173 C.ar    1  UNL1        0.0042
      4 C         139.4530  138.1002  160.0195 C.ar    1  UNL1       -0.0025
      5 C         140.2884  139.0611  159.2266 C.ar    1  UNL1       -0.0036
      6 C         141.1085  140.1005  159.9315 C.ar    1  UNL1       -0.0025
      7 C         141.0931  140.1791  161.4294 C.ar    1  UNL1        0.0042
      8 N         139.1413  140.0357  164.4212 N.am    1  UNL1       -0.2761
      9 C         140.2424  139.2968  163.7202 C.2     1  UNL1        0.2490
     10 O         141.3281  138.6363  164.5170 O.2     1  UNL1       -0.2699
     11 C         138.2775  139.1642  166.7113 C.3     1  UNL1        0.0233
     12 C         139.1260  140.1143  165.9191 C.3     1  UNL1        0.0938
     13 C         138.0555  140.6962  163.6244 C.3     1  UNL1        0.0938
     14 C         137.6773  142.1198  163.9078 C.3     1  UNL1        0.0233
     15 C         141.5479  138.5465  157.0132 C.ar    1  UNL1       -0.0024
     16 C         142.3033  139.5219  156.1600 C.ar    1  UNL1       -0.0026
     17 C         143.5474  139.0859  155.4445 C.ar    1  UNL1        0.0010
     18 C         144.0363  137.6745  155.5823 C.ar    1  UNL1        0.0147
     19 C         143.2810  136.6991  156.4355 C.ar    1  UNL1        0.0500
     20 C         142.0367  137.1351  157.1510 C.ar    1  UNL1        0.0120
     21 N         143.7698  135.2877  156.5733 N.am    1  UNL1       -0.2839
     22 C         143.4696  134.2820  155.5016 C.2     1  UNL1        0.2256
     23 O         142.6805  134.6878  154.2921 O.2     1  UNL1       -0.2748
     24 H         144.2877  135.0214  157.3671 H       1  UNL1        0.1549
     25 C         143.9585  132.8706  155.6394 C.3     1  UNL1        0.0768
     26 C         143.8917  131.4276  155.2357 C.3     1  UNL1        0.0096
     27 C         144.8719  131.8692  156.2817 C.3     1  UNL1        0.0096
     28 N         139.0749  139.3399  156.9463 N.3     1  UNL1       -0.2644
     29 C         138.1827  140.4501  157.4169 C.3     1  UNL1        0.0901
     30 C         136.9538  140.8075  156.6344 C.3     1  UNL1        0.0899
     31 N         136.6172  140.0548  155.3814 N.3     1  UNL1       -0.2665
     32 C         137.5095  138.9446  154.9108 C.3     1  UNL1        0.0899
     33 C         138.7383  138.5872  155.6932 C.3     1  UNL1        0.0901
     34 C         135.3884  140.4122  154.5989 C.3     1  UNL1        0.0992
     35 C         134.0371  140.3276  155.2447 C.ar    1  UNL1       -0.0060
     36 C         133.0204  141.4031  155.0003 C.ar    1  UNL1       -0.0006
     37 C         131.6692  141.3185  155.6460 C.ar    1  UNL1        0.0294
     38 C         131.3346  140.1584  156.5361 C.ar    1  UNL1        0.1401
     39 F         129.9834  140.0737  157.1819 F       1  UNL1       -0.2042
     40 C         132.3513  139.0829  156.7805 C.ar    1  UNL1        0.0294
     41 C         133.7026  139.1675  156.1347 C.ar    1  UNL1       -0.0006
@<TRIPOS>BOND
     1    11    12    1
     2    12     8    1
     3     8    13    1
     4    13    14    1
     5     8     9   am
     6     9    10    2
     7     9     2    1
     8     2     3   ar
     9     3     4   ar
    10     4     5   ar
    11     5     1    1
    12     1    15    1
    13    15    16   ar
    14    16    17   ar
    15    17    18   ar
    16    18    19   ar
    17    19    21    1
    18    21    22   am
    19    22    23    2
    20    22    25    1
    21    25    26    1
    22    26    27    1
    23    19    20   ar
    24     1    28    1
    25    28    29    1
    26    29    30    1
    27    30    31    1
    28    31    34    1
    29    34    35    1
    30    35    36   ar
    31    36    37   ar
    32    37    38   ar
    33    38    39    1
    34    38    40   ar
    35    40    41   ar
    36    31    32    1
    37    32    33    1
    38     5     6   ar
    39     6     7   ar
    40     7     2   ar
    41    20    15   ar
    42    33    28    1
    43    27    25    1
    44    41    35   ar
    45    21    24    1
@<TRIPOS>MOLECULE
*****
 41 45 0 0 0
SMALL
GASTEIGER

@<TRIPOS>ATOM
      1 C         139.6130  141.2183  157.9587 C.3     1  UNL1        0.1031
      2 C         144.0194  141.8908  157.3413 C.ar    1  UNL1        0.0536
      3 C         143.5371  140.6266  157.9887 C.ar    1  UNL1        0.0042
      4 C         142.0683  140.4025  158.1945 C.ar    1  UNL1       -0.0025
      5 C         141.0818  141.4425  157.7529 C.ar    1  UNL1       -0.0036
      6 C         141.5640  142.7067  157.1056 C.ar    1  UNL1       -0.0025
      7 C         143.0329  142.9309  156.8998 C.ar    1  UNL1        0.0042
      8 N         146.1547  141.6197  155.8864 N.am    1  UNL1       -0.2761
      9 C         145.4882  142.1150  157.1356 C.2     1  UNL1        0.2490
     10 O         146.2905  142.8345  158.1789 O.2     1  UNL1       -0.2699
     11 C         148.1768  141.9621  154.2914 C.3     1  UNL1        0.0233
     12 C         147.6235  141.8439  155.6806 C.3     1  UNL1        0.0938
     13 C         145.3524  140.9002  154.8430 C.3     1  UNL1        0.0938
     14 C         145.2165  139.4075  154.8986 C.3     1  UNL1        0.0233
     15 C         138.7179  140.9811  156.7786 C.ar    1  UNL1       -0.0024
     16 C         139.2865  140.4293  155.5049 C.ar    1  UNL1       -0.0026
     17 C         138.3915  140.1920  154.3249 C.ar    1  UNL1        0.0010
     18 C         136.9278  140.5066  154.4185 C.ar    1  UNL1        0.0147
     19 C         136.3592  141.0583  155.6921 C.ar    1  UNL1        0.0500
     20 C         137.2542  141.2956  156.8722 C.ar    1  UNL1        0.0120
     21 N         134.8955  141.3728  155.7857 N.am    1  UNL1       -0.2839
     22 C         133.9012  140.2660  155.9760 C.2     1  UNL1        0.2256
     23 O         134.3706  138.8446  156.0727 O.2     1  UNL1       -0.2748
     24 H         134.5875  142.3057  155.7222 H       1  UNL1        0.1549
     25 C         132.4376  140.5805  156.0695 C.3     1  UNL1        0.0768
     26 C         131.2611  141.4200  155.6683 C.3     1  UNL1        0.0096
     27 C         131.0790  140.2858  156.6328 C.3     1  UNL1        0.0096
     28 N         139.0392  141.2314  159.3445 N.3     1  UNL1       -0.2644
     29 C         138.7239  139.9392  160.0380 C.3     1  UNL1        0.0901
     30 C         138.1501  139.9523  161.4239 C.3     1  UNL1        0.0899
     31 N         137.8916  141.2576  162.1163 N.3     1  UNL1       -0.2665
     32 C         138.2069  142.5498  161.4228 C.3     1  UNL1        0.0899
     33 C         138.7806  142.5367  160.0370 C.3     1  UNL1        0.0901
     34 C         137.3178  141.2707  163.5022 C.3     1  UNL1        0.0992
     35 C         138.2116  141.0482  164.6861 C.ar    1  UNL1       -0.0060
     36 C         139.1913  142.1077  165.0957 C.ar    1  UNL1       -0.0006
     37 C         140.0851  141.8853  166.2796 C.ar    1  UNL1        0.0294
     38 C         139.9992  140.6033  167.0539 C.ar    1  UNL1        0.1401
     39 F         140.8930  140.3809  168.2378 F       1  UNL1       -0.2042
     40 C         139.0196  139.5440  166.6442 C.ar    1  UNL1        0.0294
     41 C         138.1258  139.7664  165.4603 C.ar    1  UNL1       -0.0006
@<TRIPOS>BOND
     1    11    12    1
     2    12     8    1
     3     8    13    1
     4    13    14    1
     5     8     9   am
     6     9    10    2
     7     9     2    1
     8     2     3   ar
     9     3     4   ar
    10     4     5   ar
    11     5     1    1
    12     1    15    1
    13    15    16   ar
    14    16    17   ar
    15    17    18   ar
    16    18    19   ar
    17    19    21    1
    18    21    22   am
    19    22    23    2
    20    22    25    1
    21    25    26    1
    22    26    27    1
    23    19    20   ar
    24     1    28    1
    25    28    29    1
    26    29    30    1
    27    30    31    1
    28    31    34    1
    29    34    35    1
    30    35    36   ar
    31    36    37   ar
    32    37    38   ar
    33    38    39    1
    34    38    40   ar
    35    40    41   ar
    36    31    32    1
    37    32    33    1
    38     5     6   ar
    39     6     7   ar
    40     7     2   ar
    41    20    15   ar
    42    33    28    1
    43    27    25    1
    44    41    35   ar
    45    21    24    1
@<TRIPOS>MOLECULE
*****
 41 45 0 0 0
SMALL
GASTEIGER

@<TRIPOS>ATOM
      1 C         140.3802  139.1999  158.9132 C.3     1  UNL1        0.1031
      2 C         140.1210  143.5536  157.8053 C.ar    1  UNL1        0.0536
      3 C         141.3112  142.7427  157.3863 C.ar    1  UNL1        0.0042
      4 C         141.3976  141.2914  157.7556 C.ar    1  UNL1       -0.0025
      5 C         140.2938  140.6511  158.5439 C.ar    1  UNL1       -0.0036
      6 C         139.1036  141.4621  158.9629 C.ar    1  UNL1       -0.0025
      7 C         139.0171  142.9133  158.5937 C.ar    1  UNL1        0.0042
      8 N         139.3350  145.4176  156.1750 N.am    1  UNL1       -0.2761
      9 C         140.0346  145.0049  157.4361 C.2     1  UNL1        0.2490
     10 O         140.6477  146.0435  158.3278 O.2     1  UNL1       -0.2699
     11 C         139.9013  147.3630  154.5487 C.3     1  UNL1        0.0233
     12 C         139.2486  146.8688  155.8057 C.3     1  UNL1        0.0938
     13 C         138.7219  144.3789  155.2831 C.3     1  UNL1        0.0938
     14 C         137.2321  144.3146  155.1208 C.3     1  UNL1        0.0233
     15 C         139.9153  138.7405  160.2633 C.ar    1  UNL1       -0.0024
     16 C         138.4575  138.4852  160.5076 C.ar    1  UNL1       -0.0026
     17 C         137.9925  138.0258  161.8577 C.ar    1  UNL1        0.0010
     18 C         138.9853  137.8218  162.9635 C.ar    1  UNL1        0.0147
     19 C         140.4431  138.0771  162.7192 C.ar    1  UNL1        0.0500
     20 C         140.9081  138.5365  161.3690 C.ar    1  UNL1        0.0120
     21 N         141.4359  137.8731  163.8249 N.am    1  UNL1       -0.2839
     22 C         141.5898  138.9121  164.8958 C.2     1  UNL1        0.2256
     23 O         140.7509  140.1551  164.8610 O.2     1  UNL1       -0.2748
     24 H         141.9865  137.0573  163.8478 H       1  UNL1        0.1549
     25 C         142.5826  138.7081  166.0016 C.3     1  UNL1        0.0768
     26 C         143.0503  138.9972  167.3971 C.3     1  UNL1        0.0096
     27 C         143.8345  138.0656  166.5212 C.3     1  UNL1        0.0096
     28 N         140.9316  138.2079  157.9323 N.3     1  UNL1       -0.2644
     29 C         140.0479  137.6430  156.8599 C.3     1  UNL1        0.0901
     30 C         140.5994  136.6510  155.8791 C.3     1  UNL1        0.0899
     31 N         142.0343  136.2240  155.9707 N.3     1  UNL1       -0.2665
     32 C         142.9180  136.7889  157.0431 C.3     1  UNL1        0.0899
     33 C         142.3666  137.7808  158.0239 C.3     1  UNL1        0.0901
     34 C         142.5857  135.2320  154.9898 C.3     1  UNL1        0.0992
     35 C         142.6989  133.7853  155.3696 C.ar    1  UNL1       -0.0060
     36 C         143.9331  133.2856  156.0604 C.ar    1  UNL1       -0.0006
     37 C         144.0463  131.8389  156.4402 C.ar    1  UNL1        0.0294
     38 C         142.9253  130.8919  156.1292 C.ar    1  UNL1        0.1401
     39 F         143.0384  129.4452  156.5090 F       1  UNL1       -0.2042
     40 C         141.6912  131.3917  155.4384 C.ar    1  UNL1        0.0294
     41 C         141.5780  132.8384  155.0587 C.ar    1  UNL1       -0.0006
@<TRIPOS>BOND
     1    11    12    1
     2    12     8    1
     3     8    13    1
     4    13    14    1
     5     8     9   am
     6     9    10    2
     7     9     2    1
     8     2     3   ar
     9     3     4   ar
    10     4     5   ar
    11     5     1    1
    12     1    15    1
    13    15    16   ar
    14    16    17   ar
    15    17    18   ar
    16    18    19   ar
    17    19    21    1
    18    21    22   am
    19    22    23    2
    20    22    25    1
    21    25    26    1
    22    26    27    1
    23    19    20   ar
    24     1    28    1
    25    28    29    1
    26    29    30    1
    27    30    31    1
    28    31    34    1
    29    34    35    1
    30    35    36   ar
    31    36    37   ar
    32    37    38   ar
    33    38    39    1
    34    38    40   ar
    35    40    41   ar
    36    31    32    1
    37    32    33    1
    38     5     6   ar
    39     6     7   ar
    40     7     2   ar
    41    20    15   ar
    42    33    28    1
    43    27    25    1
    44    41    35   ar
    45    21    24    1
@<TRIPOS>MOLECULE
*****
 41 45 0 0 0
SMALL
GASTEIGER

@<TRIPOS>ATOM
      1 C         142.2491  138.6913  157.9108 C.3     1  UNL1        0.1031
      2 C         141.8440  135.5942  154.6713 C.ar    1  UNL1        0.0536
      3 C         143.1971  135.9249  155.2278 C.ar    1  UNL1        0.0042
      4 C         143.3321  136.9572  156.3077 C.ar    1  UNL1       -0.0025
      5 C         142.1141  137.6589  156.8310 C.ar    1  UNL1       -0.0036
      6 C         140.7610  137.3282  156.2745 C.ar    1  UNL1       -0.0025
      7 C         140.6260  136.2959  155.1946 C.ar    1  UNL1        0.0042
      8 N         141.4731  133.1252  153.9526 N.am    1  UNL1       -0.2761
      9 C         141.7090  134.5619  153.5915 C.2     1  UNL1        0.2490
     10 O         141.8099  134.9661  152.1506 O.2     1  UNL1       -0.2699
     11 C         142.5534  131.3741  152.3662 C.3     1  UNL1        0.0233
     12 C         141.3381  132.0929  152.8728 C.3     1  UNL1        0.0938
     13 C         141.3723  132.7209  155.3936 C.3     1  UNL1        0.0938
     14 C         142.5956  132.2645  156.1319 C.3     1  UNL1        0.0233
     15 C         142.7318  140.0708  157.5734 C.ar    1  UNL1       -0.0024
     16 C         141.7607  141.2127  157.5185 C.ar    1  UNL1       -0.0026
     17 C         142.2435  142.5922  157.1811 C.ar    1  UNL1        0.0010
     18 C         143.6973  142.8299  156.8986 C.ar    1  UNL1        0.0147
     19 C         144.6684  141.6880  156.9535 C.ar    1  UNL1        0.0500
     20 C         144.1857  140.3084  157.2909 C.ar    1  UNL1        0.0120
     21 N         146.1223  141.9257  156.6711 N.am    1  UNL1       -0.2839
     22 C         146.6940  141.5693  155.3309 C.2     1  UNL1        0.2256
     23 O         145.8118  140.9752  154.2731 O.2     1  UNL1       -0.2748
     24 H         146.7013  142.3156  157.3653 H       1  UNL1        0.1549
     25 C         148.1479  141.8069  155.0484 C.3     1  UNL1        0.0768
     26 C         149.5829  141.7392  155.4796 C.3     1  UNL1        0.0096
     27 C         149.2309  142.2862  154.1280 C.3     1  UNL1        0.0096
     28 N         141.9013  138.3441  159.3280 N.3     1  UNL1       -0.2644
     29 C         140.4921  138.5060  159.8157 C.3     1  UNL1        0.0901
     30 C         140.1444  138.1588  161.2330 C.3     1  UNL1        0.0899
     31 N         141.2059  137.6498  162.1625 N.3     1  UNL1       -0.2665
     32 C         142.6151  137.4879  161.6748 C.3     1  UNL1        0.0899
     33 C         142.9629  137.8351  160.2576 C.3     1  UNL1        0.0901
     34 C         140.8582  137.3026  163.5798 C.3     1  UNL1        0.0992
     35 C         141.2924  138.2007  164.7001 C.ar    1  UNL1       -0.0060
     36 C         142.6691  138.0644  165.2798 C.ar    1  UNL1       -0.0006
     37 C         143.1034  138.9625  166.4001 C.ar    1  UNL1        0.0294
     38 C         142.1608  139.9967  166.9406 C.ar    1  UNL1        0.1401
     39 F         142.5951  140.8947  168.0609 F       1  UNL1       -0.2042
     40 C         140.7842  140.1329  166.3608 C.ar    1  UNL1        0.0294
     41 C         140.3500  139.2349  165.2406 C.ar    1  UNL1       -0.0006
@<TRIPOS>BOND
     1    11    12    1
     2    12     8    1
     3     8    13    1
     4    13    14    1
     5     8     9   am
     6     9    10    2
     7     9     2    1
     8     2     3   ar
     9     3     4   ar
    10     4     5   ar
    11     5     1    1
    12     1    15    1
    13    15    16   ar
    14    16    17   ar
    15    17    18   ar
    16    18    19   ar
    17    19    21    1
    18    21    22   am
    19    22    23    2
    20    22    25    1
    21    25    26    1
    22    26    27    1
    23    19    20   ar
    24     1    28    1
    25    28    29    1
    26    29    30    1
    27    30    31    1
    28    31    34    1
    29    34    35    1
    30    35    36   ar
    31    36    37   ar
    32    37    38   ar
    33    38    39    1
    34    38    40   ar
    35    40    41   ar
    36    31    32    1
    37    32    33    1
    38     5     6   ar
    39     6     7   ar
    40     7     2   ar
    41    20    15   ar
    42    33    28    1
    43    27    25    1
    44    41    35   ar
    45    21    24    1
@<TRIPOS>MOLECULE
*****
 41 45 0 0 0
SMALL
GASTEIGER

@<TRIPOS>ATOM
      1 C         139.9881  142.2561  157.8132 C.3     1  UNL1        0.1031
      2 C         141.2728  138.0533  156.8457 C.ar    1  UNL1        0.0536
      3 C         141.9249  139.2146  156.1557 C.ar    1  UNL1        0.0042
      4 C         141.4967  140.6155  156.4782 C.ar    1  UNL1       -0.0025
      5 C         140.4163  140.8552  157.4907 C.ar    1  UNL1       -0.0036
      6 C         139.7642  139.6940  158.1808 C.ar    1  UNL1       -0.0025
      7 C         140.1924  138.2930  157.8583 C.ar    1  UNL1        0.0042
      8 N         140.9747  135.8699  155.4696 N.am    1  UNL1       -0.2761
      9 C         141.7010  136.6524  156.5232 C.2     1  UNL1        0.2490
     10 O         142.8555  136.0339  157.2543 O.2     1  UNL1       -0.2699
     11 C         142.5177  134.2312  154.1719 C.3     1  UNL1        0.0233
     12 C         141.4029  134.4690  155.1471 C.3     1  UNL1        0.0938
     13 C         139.8202  136.4884  154.7384 C.3     1  UNL1        0.0938
     14 C         140.0545  137.2259  153.4535 C.3     1  UNL1        0.0233
     15 C         139.0814  142.9977  156.8763 C.ar    1  UNL1       -0.0024
     16 C         137.6510  142.5725  156.7234 C.ar    1  UNL1       -0.0026
     17 C         136.7442  143.3141  155.7865 C.ar    1  UNL1        0.0010
     18 C         137.2677  144.4808  155.0025 C.ar    1  UNL1        0.0147
     19 C         138.6980  144.9060  155.1554 C.ar    1  UNL1        0.0500
     20 C         139.6049  144.1644  156.0923 C.ar    1  UNL1        0.0120
     21 N         139.2216  146.0727  154.3714 N.am    1  UNL1       -0.2839
     22 C         139.2583  147.4376  154.9922 C.2     1  UNL1        0.2256
     23 O         138.7715  147.6359  156.3972 O.2     1  UNL1       -0.2748
     24 H         139.5411  145.9426  153.4493 H       1  UNL1        0.1549
     25 C         139.7819  148.6044  154.2082 C.3     1  UNL1        0.0768
     26 C         140.3483  149.9927  154.1672 C.3     1  UNL1        0.0096
     27 C         140.1222  149.2368  152.8914 C.3     1  UNL1        0.0096
     28 N         140.4667  142.9155  159.0727 N.3     1  UNL1       -0.2644
     29 C         141.9370  143.0421  159.3410 C.3     1  UNL1        0.0901
     30 C         142.4155  143.7015  160.6005 C.3     1  UNL1        0.0899
     31 N         141.4237  144.2343  161.5916 N.3     1  UNL1       -0.2665
     32 C         139.9533  144.1078  161.3233 C.3     1  UNL1        0.0899
     33 C         139.4748  143.4484  160.0638 C.3     1  UNL1        0.0901
     34 C         141.9022  144.8938  162.8511 C.3     1  UNL1        0.0992
     35 C         142.2357  144.0613  164.0534 C.ar    1  UNL1       -0.0060
     36 C         143.6678  143.8560  164.4497 C.ar    1  UNL1       -0.0006
     37 C         144.0013  143.0235  165.6521 C.ar    1  UNL1        0.0294
     38 C         142.9027  142.3963  166.4582 C.ar    1  UNL1        0.1401
     39 F         143.2362  141.5638  167.6606 F       1  UNL1       -0.2042
     40 C         141.4707  142.6015  166.0619 C.ar    1  UNL1        0.0294
     41 C         141.1372  143.4340  164.8595 C.ar    1  UNL1       -0.0006
@<TRIPOS>BOND
     1    11    12    1
     2    12     8    1
     3     8    13    1
     4    13    14    1
     5     8     9   am
     6     9    10    2
     7     9     2    1
     8     2     3   ar
     9     3     4   ar
    10     4     5   ar
    11     5     1    1
    12     1    15    1
    13    15    16   ar
    14    16    17   ar
    15    17    18   ar
    16    18    19   ar
    17    19    21    1
    18    21    22   am
    19    22    23    2
    20    22    25    1
    21    25    26    1
    22    26    27    1
    23    19    20   ar
    24     1    28    1
    25    28    29    1
    26    29    30    1
    27    30    31    1
    28    31    34    1
    29    34    35    1
    30    35    36   ar
    31    36    37   ar
    32    37    38   ar
    33    38    39    1
    34    38    40   ar
    35    40    41   ar
    36    31    32    1
    37    32    33    1
    38     5     6   ar
    39     6     7   ar
    40     7     2   ar
    41    20    15   ar
    42    33    28    1
    43    27    25    1
    44    41    35   ar
    45    21    24    1
@<TRIPOS>MOLECULE
*****
 41 45 0 0 0
SMALL
GASTEIGER

@<TRIPOS>ATOM
      1 C         141.5089  141.8477  162.2968 C.3     1  UNL1        0.1031
      2 C         142.0551  140.9064  166.6632 C.ar    1  UNL1        0.0536
      3 C         143.1537  141.5838  165.8988 C.ar    1  UNL1        0.0042
      4 C         142.9716  141.8976  164.4434 C.ar    1  UNL1       -0.0025
      5 C         141.6910  141.5339  163.7523 C.ar    1  UNL1       -0.0036
      6 C         140.5924  140.8565  164.5166 C.ar    1  UNL1       -0.0025
      7 C         140.7745  140.5428  165.9721 C.ar    1  UNL1        0.0042
      8 N         141.6863  141.5205  169.1606 N.am    1  UNL1       -0.2761
      9 C         142.2372  140.5927  168.1187 C.2     1  UNL1        0.2490
     10 O         142.9702  139.3511  168.5323 O.2     1  UNL1       -0.2699
     11 C         140.8057  140.4529  171.3594 C.3     1  UNL1        0.0233
     12 C         141.8684  141.2068  170.6160 C.3     1  UNL1        0.0938
     13 C         140.9532  142.7622  168.7470 C.3     1  UNL1        0.0938
     14 C         140.5331  143.7646  169.7807 C.3     1  UNL1        0.0233
     15 C         141.0294  143.2054  161.8765 C.ar    1  UNL1       -0.0024
     16 C         140.8638  144.2916  162.8977 C.ar    1  UNL1       -0.0026
     17 C         140.3843  145.6493  162.4774 C.ar    1  UNL1        0.0010
     18 C         140.0704  145.9209  161.0359 C.ar    1  UNL1        0.0147
     19 C         140.2360  144.8347  160.0148 C.ar    1  UNL1        0.0500
     20 C         140.7155  143.4769  160.4350 C.ar    1  UNL1        0.0120
     21 N         139.9222  145.1063  158.5733 N.am    1  UNL1       -0.2839
     22 C         140.9594  145.7246  157.6835 C.2     1  UNL1        0.2256
     23 O         142.3105  146.0714  158.2351 O.2     1  UNL1       -0.2748
     24 H         139.0354  144.8787  158.2113 H       1  UNL1        0.1549
     25 C         140.6455  145.9961  156.2421 C.3     1  UNL1        0.0768
     26 C         140.3104  146.9631  155.1454 C.3     1  UNL1        0.0096
     27 C         140.4370  145.4995  154.8421 C.3     1  UNL1        0.0096
     28 N         141.8063  140.8037  161.2616 N.3     1  UNL1       -0.2644
     29 C         143.1468  140.7747  160.5892 C.3     1  UNL1        0.0901
     30 C         143.4441  139.7307  159.5539 C.3     1  UNL1        0.0899
     31 N         142.4010  138.7157  159.1912 N.3     1  UNL1       -0.2665
     32 C         141.0605  138.7447  159.8636 C.3     1  UNL1        0.0899
     33 C         140.7631  139.7887  160.8988 C.3     1  UNL1        0.0901
     34 C         142.6984  137.6717  158.1559 C.3     1  UNL1        0.0992
     35 C         141.9083  137.6328  156.8815 C.ar    1  UNL1       -0.0060
     36 C         141.4681  136.3168  156.3117 C.ar    1  UNL1       -0.0006
     37 C         140.6781  136.2780  155.0372 C.ar    1  UNL1        0.0294
     38 C         140.3281  137.5551  154.3325 C.ar    1  UNL1        0.1401
     39 F         139.5380  137.5163  153.0581 F       1  UNL1       -0.2042
     40 C         140.7683  138.8710  154.9023 C.ar    1  UNL1        0.0294
     41 C         141.5583  138.9099  156.1768 C.ar    1  UNL1       -0.0006
@<TRIPOS>BOND
     1    11    12    1
     2    12     8    1
     3     8    13    1
     4    13    14    1
     5     8     9   am
     6     9    10    2
     7     9     2    1
     8     2     3   ar
     9     3     4   ar
    10     4     5   ar
    11     5     1    1
    12     1    15    1
    13    15    16   ar
    14    16    17   ar
    15    17    18   ar
    16    18    19   ar
    17    19    21    1
    18    21    22   am
    19    22    23    2
    20    22    25    1
    21    25    26    1
    22    26    27    1
    23    19    20   ar
    24     1    28    1
    25    28    29    1
    26    29    30    1
    27    30    31    1
    28    31    34    1
    29    34    35    1
    30    35    36   ar
    31    36    37   ar
    32    37    38   ar
    33    38    39    1
    34    38    40   ar
    35    40    41   ar
    36    31    32    1
    37    32    33    1
    38     5     6   ar
    39     6     7   ar
    40     7     2   ar
    41    20    15   ar
    42    33    28    1
    43    27    25    1
    44    41    35   ar
    45    21    24    1
