@<TRIPOS>MOLECULE
*****
 27 29 0 0 0
SMALL
GASTEIGER

@<TRIPOS>ATOM
      1 C         140.8829  141.2254  167.2695 C.3     1  UNL1        0.0847
      2 F         136.8015  138.0107  167.3561 F       1  UNL1       -0.2042
      3 C         138.0874  138.4609  166.7286 C.ar    1  UNL1        0.1399
      4 C         138.6185  137.7539  165.5170 C.ar    1  UNL1        0.0296
      5 C         139.9044  138.2041  164.8895 C.ar    1  UNL1        0.0020
      6 C         140.6592  139.3612  165.4737 C.ar    1  UNL1       -0.0028
      7 C         140.1281  140.0682  166.6853 C.ar    1  UNL1       -0.0052
      8 C         138.8422  139.6180  167.3128 C.ar    1  UNL1        0.0267
      9 N         140.8201  141.4941  168.7439 N.3     1  UNL1       -0.2676
     10 C         141.4927  140.5602  169.7058 C.3     1  UNL1        0.0896
     11 C         141.4300  140.8290  171.1802 C.3     1  UNL1        0.0862
     12 N         140.6946  142.0317  171.6927 N.3     1  UNL1       -0.2951
     13 C         140.0219  142.9657  170.7307 C.3     1  UNL1        0.0862
     14 C         140.0847  142.6969  169.2563 C.3     1  UNL1        0.0896
     15 H         141.3690  142.5869  172.2193 H       1  UNL1        0.1233
     16 C         141.7005  142.1137  166.3793 C.3     1  UNL1        0.0499
     17 C         141.0216  143.1055  165.4817 C.ar    1  UNL1        0.0137
     18 C         139.5981  143.5005  165.7415 C.ar    1  UNL1       -0.0012
     19 C         138.9192  144.4922  164.8440 C.ar    1  UNL1       -0.0001
     20 C         139.6638  145.0889  163.6867 C.ar    1  UNL1        0.0031
     21 C         141.0874  144.6938  163.4268 C.ar    1  UNL1        0.0369
     22 C         141.7662  143.7021  164.3244 C.ar    1  UNL1        0.1428
     23 O         143.1898  143.3070  164.0646 O.3     1  UNL1       -0.4048
     24 C         144.2714  143.7339  165.0120 C.3     1  UNL1        0.5753
     25 F         145.3532  144.1608  165.9595 F       1  UNL1       -0.1328
     26 F         144.6084  142.2961  165.2750 F       1  UNL1       -0.1328
     27 F         143.9345  145.1716  164.7490 F       1  UNL1       -0.1328
@<TRIPOS>BOND
     1     2     3    1
     2     3     4   ar
     3     4     5   ar
     4     5     6   ar
     5     6     7   ar
     6     7     1    1
     7     1    16    1
     8    16    17    1
     9    17    18   ar
    10    18    19   ar
    11    19    20   ar
    12    20    21   ar
    13    21    22   ar
    14    22    23    1
    15    23    24    1
    16    24    25    1
    17    24    26    1
    18    24    27    1
    19     1     9    1
    20     9    10    1
    21    10    11    1
    22    11    12    1
    23    12    13    1
    24    13    14    1
    25     7     8   ar
    26     8     3   ar
    27    22    17   ar
    28    14     9    1
    29    12    15    1
@<TRIPOS>MOLECULE
*****
 27 29 0 0 0
SMALL
GASTEIGER

@<TRIPOS>ATOM
      1 C         140.9073  141.1974  167.1743 C.3     1  UNL1        0.0847
      2 F         141.1380  136.9865  164.1386 F       1  UNL1       -0.2042
      3 C         140.3566  137.8995  165.0364 C.ar    1  UNL1        0.1399
      4 C         138.9093  137.6200  165.3141 C.ar    1  UNL1        0.0296
      5 C         138.1280  138.5330  166.2118 C.ar    1  UNL1        0.0020
      6 C         138.7939  139.7254  166.8319 C.ar    1  UNL1       -0.0028
      7 C         140.2413  140.0049  166.5542 C.ar    1  UNL1       -0.0052
      8 C         141.0226  139.0919  165.6565 C.ar    1  UNL1        0.0267
      9 N         140.7606  141.4584  168.6441 N.3     1  UNL1       -0.2676
     10 C         140.3030  142.8034  169.1250 C.3     1  UNL1        0.0896
     11 C         140.1564  143.0644  170.5949 C.3     1  UNL1        0.0862
     12 N         140.4673  141.9804  171.5838 N.3     1  UNL1       -0.2951
     13 C         140.9250  140.6352  171.1029 C.3     1  UNL1        0.0862
     14 C         141.0716  140.3742  169.6331 C.3     1  UNL1        0.0896
     15 H         139.6184  141.8255  172.1276 H       1  UNL1        0.1233
     16 C         141.7199  142.1288  166.3246 C.3     1  UNL1        0.0499
     17 C         141.0344  143.1090  165.4194 C.ar    1  UNL1        0.0137
     18 C         139.6030  143.4834  165.6661 C.ar    1  UNL1       -0.0012
     19 C         138.9174  144.4636  164.7610 C.ar    1  UNL1       -0.0001
     20 C         139.6633  145.0693  163.6093 C.ar    1  UNL1        0.0031
     21 C         141.0947  144.6949  163.3626 C.ar    1  UNL1        0.0369
     22 C         141.7802  143.7148  164.2677 C.ar    1  UNL1        0.1428
     23 O         143.2117  143.3404  164.0210 O.3     1  UNL1       -0.4048
     24 C         144.2753  143.7636  164.9902 C.3     1  UNL1        0.5753
     25 F         145.3390  144.1868  165.9595 F       1  UNL1       -0.1328
     26 F         144.6238  142.3254  165.2357 F       1  UNL1       -0.1328
     27 F         143.9268  145.2017  164.7448 F       1  UNL1       -0.1328
@<TRIPOS>BOND
     1     2     3    1
     2     3     4   ar
     3     4     5   ar
     4     5     6   ar
     5     6     7   ar
     6     7     1    1
     7     1    16    1
     8    16    17    1
     9    17    18   ar
    10    18    19   ar
    11    19    20   ar
    12    20    21   ar
    13    21    22   ar
    14    22    23    1
    15    23    24    1
    16    24    25    1
    17    24    26    1
    18    24    27    1
    19     1     9    1
    20     9    10    1
    21    10    11    1
    22    11    12    1
    23    12    13    1
    24    13    14    1
    25     7     8   ar
    26     8     3   ar
    27    22    17   ar
    28    14     9    1
    29    12    15    1
@<TRIPOS>MOLECULE
*****
 27 29 0 0 0
SMALL
GASTEIGER

@<TRIPOS>ATOM
      1 C         141.6460  141.6332  164.9191 C.3     1  UNL1        0.0847
      2 F         138.4235  145.5052  166.1932 F       1  UNL1       -0.2042
      3 C         138.8093  144.3863  165.2718 C.ar    1  UNL1        0.1399
      4 C         137.9698  144.0843  164.0660 C.ar    1  UNL1        0.0296
      5 C         138.3557  142.9654  163.1445 C.ar    1  UNL1        0.0020
      6 C         139.5810  142.1483  163.4289 C.ar    1  UNL1       -0.0028
      7 C         140.4205  142.4503  164.6347 C.ar    1  UNL1       -0.0052
      8 C         140.0347  143.5692  165.5561 C.ar    1  UNL1        0.0267
      9 N         142.9182  141.9043  164.1721 N.3     1  UNL1       -0.2676
     10 C         144.0568  140.9312  164.2521 C.3     1  UNL1        0.0896
     11 C         145.3290  141.2023  163.5051 C.3     1  UNL1        0.0862
     12 N         145.4626  142.4466  162.6781 N.3     1  UNL1       -0.2951
     13 C         144.3239  143.4198  162.5981 C.3     1  UNL1        0.0862
     14 C         143.0517  143.1487  163.3451 C.3     1  UNL1        0.0896
     15 H         145.6606  142.1460  161.7237 H       1  UNL1        0.1233
     16 C         141.5992  140.5451  165.9505 C.3     1  UNL1        0.0499
     17 C         140.3750  139.6882  166.0817 C.ar    1  UNL1        0.0137
     18 C         140.0661  138.6566  165.0374 C.ar    1  UNL1       -0.0012
     19 C         138.8420  137.7998  165.1686 C.ar    1  UNL1       -0.0001
     20 C         137.9267  137.9744  166.3440 C.ar    1  UNL1        0.0031
     21 C         138.2356  139.0059  167.3883 C.ar    1  UNL1        0.0369
     22 C         139.4597  139.8628  167.2571 C.ar    1  UNL1        0.1428
     23 O         139.7685  140.8944  168.3014 O.3     1  UNL1       -0.4048
     24 C         139.9090  140.4881  169.7385 C.3     1  UNL1        0.5753
     25 F         140.0494  140.0818  171.1756 F       1  UNL1       -0.1328
     26 F         140.9744  139.5039  169.3561 F       1  UNL1       -0.1328
     27 F         138.8435  141.4722  170.1209 F       1  UNL1       -0.1328
@<TRIPOS>BOND
     1     2     3    1
     2     3     4   ar
     3     4     5   ar
     4     5     6   ar
     5     6     7   ar
     6     7     1    1
     7     1    16    1
     8    16    17    1
     9    17    18   ar
    10    18    19   ar
    11    19    20   ar
    12    20    21   ar
    13    21    22   ar
    14    22    23    1
    15    23    24    1
    16    24    25    1
    17    24    26    1
    18    24    27    1
    19     1     9    1
    20     9    10    1
    21    10    11    1
    22    11    12    1
    23    12    13    1
    24    13    14    1
    25     7     8   ar
    26     8     3   ar
    27    22    17   ar
    28    14     9    1
    29    12    15    1
@<TRIPOS>MOLECULE
*****
 27 29 0 0 0
SMALL
GASTEIGER

@<TRIPOS>ATOM
      1 C         141.5163  142.3012  167.3108 C.3     1  UNL1        0.0847
      2 F         137.7170  139.8453  164.7547 F       1  UNL1       -0.2042
      3 C         138.4887  141.0985  165.0443 C.ar    1  UNL1        0.1399
      4 C         138.1324  142.3770  164.3455 C.ar    1  UNL1        0.0296
      5 C         138.9040  143.6303  164.6351 C.ar    1  UNL1        0.0020
      6 C         140.0320  143.6051  165.6235 C.ar    1  UNL1       -0.0028
      7 C         140.3883  142.3265  166.3223 C.ar    1  UNL1       -0.0052
      8 C         139.6166  141.0733  166.0327 C.ar    1  UNL1        0.0267
      9 N         141.2249  142.2018  168.7789 N.3     1  UNL1       -0.2676
     10 C         140.2158  143.1168  169.4069 C.3     1  UNL1        0.0896
     11 C         139.9244  143.0173  170.8750 C.3     1  UNL1        0.0862
     12 N         140.6421  142.0028  171.7150 N.3     1  UNL1       -0.2951
     13 C         141.6512  141.0878  171.0870 C.3     1  UNL1        0.0862
     14 C         141.9426  141.1872  169.6190 C.3     1  UNL1        0.0896
     15 H         139.9268  141.4088  172.1345 H       1  UNL1        0.1233
     16 C         142.9356  142.3754  166.8313 C.3     1  UNL1        0.0499
     17 C         143.4435  141.3765  165.8341 C.ar    1  UNL1        0.0137
     18 C         143.1428  139.9180  166.0138 C.ar    1  UNL1       -0.0012
     19 C         143.6506  138.9190  165.0168 C.ar    1  UNL1       -0.0001
     20 C         144.4592  139.3787  163.8400 C.ar    1  UNL1        0.0031
     21 C         144.7600  140.8372  163.6603 C.ar    1  UNL1        0.0369
     22 C         144.2521  141.8361  164.6573 C.ar    1  UNL1        0.1428
     23 O         144.5528  143.2946  164.4776 O.3     1  UNL1       -0.4048
     24 C         143.4489  144.2517  164.1383 C.3     1  UNL1        0.5753
     25 F         142.3448  145.2089  163.7990 F       1  UNL1       -0.1328
     26 F         144.1758  145.3465  164.8615 F       1  UNL1       -0.1328
     27 F         142.7219  143.1570  163.4152 F       1  UNL1       -0.1328
@<TRIPOS>BOND
     1     2     3    1
     2     3     4   ar
     3     4     5   ar
     4     5     6   ar
     5     6     7   ar
     6     7     1    1
     7     1    16    1
     8    16    17    1
     9    17    18   ar
    10    18    19   ar
    11    19    20   ar
    12    20    21   ar
    13    21    22   ar
    14    22    23    1
    15    23    24    1
    16    24    25    1
    17    24    26    1
    18    24    27    1
    19     1     9    1
    20     9    10    1
    21    10    11    1
    22    11    12    1
    23    12    13    1
    24    13    14    1
    25     7     8   ar
    26     8     3   ar
    27    22    17   ar
    28    14     9    1
    29    12    15    1
@<TRIPOS>MOLECULE
*****
 27 29 0 0 0
SMALL
GASTEIGER

@<TRIPOS>ATOM
      1 C         140.7297  140.5295  165.3498 C.3     1  UNL1        0.0847
      2 F         138.6505  140.3294  170.1077 F       1  UNL1       -0.2042
      3 C         139.8340  140.1724  169.1996 C.ar    1  UNL1        0.1399
      4 C         141.1614  139.7585  169.7622 C.ar    1  UNL1        0.0296
      5 C         142.3449  139.6016  168.8541 C.ar    1  UNL1        0.0020
      6 C         142.2010  139.8586  167.3833 C.ar    1  UNL1       -0.0028
      7 C         140.8736  140.2725  166.8207 C.ar    1  UNL1       -0.0052
      8 C         139.6901  140.4294  167.7288 C.ar    1  UNL1        0.0267
      9 N         141.0282  139.4382  164.3650 N.3     1  UNL1       -0.2676
     10 C         142.4047  139.3086  163.7836 C.3     1  UNL1        0.0896
     11 C         142.7032  138.2172  162.7988 C.3     1  UNL1        0.0862
     12 N         141.6251  137.2555  162.3955 N.3     1  UNL1       -0.2951
     13 C         140.2485  137.3851  162.9769 C.3     1  UNL1        0.0862
     14 C         139.9500  138.4764  163.9617 C.3     1  UNL1        0.0896
     15 H         141.9590  136.3217  162.6344 H       1  UNL1        0.1233
     16 C         140.2872  141.8779  164.8639 C.3     1  UNL1        0.0499
     17 C         141.3048  142.9398  164.5689 C.ar    1  UNL1        0.0137
     18 C         142.7188  142.7756  165.0417 C.ar    1  UNL1       -0.0012
     19 C         143.7363  143.8375  164.7467 C.ar    1  UNL1       -0.0001
     20 C         143.3398  145.0636  163.9791 C.ar    1  UNL1        0.0031
     21 C         141.9258  145.2278  163.5063 C.ar    1  UNL1        0.0369
     22 C         140.9083  144.1659  163.8012 C.ar    1  UNL1        0.1428
     23 O         139.4942  144.3302  163.3285 O.3     1  UNL1       -0.4048
     24 C         138.3785  144.4416  164.3248 C.3     1  UNL1        0.5753
     25 F         137.2626  144.5530  165.3211 F       1  UNL1       -0.1328
     26 F         139.2393  145.3121  165.1915 F       1  UNL1       -0.1328
     27 F         137.5176  143.5712  163.4581 F       1  UNL1       -0.1328
@<TRIPOS>BOND
     1     2     3    1
     2     3     4   ar
     3     4     5   ar
     4     5     6   ar
     5     6     7   ar
     6     7     1    1
     7     1    16    1
     8    16    17    1
     9    17    18   ar
    10    18    19   ar
    11    19    20   ar
    12    20    21   ar
    13    21    22   ar
    14    22    23    1
    15    23    24    1
    16    24    25    1
    17    24    26    1
    18    24    27    1
    19     1     9    1
    20     9    10    1
    21    10    11    1
    22    11    12    1
    23    12    13    1
    24    13    14    1
    25     7     8   ar
    26     8     3   ar
    27    22    17   ar
    28    14     9    1
    29    12    15    1
@<TRIPOS>MOLECULE
*****
 27 29 0 0 0
SMALL
GASTEIGER

@<TRIPOS>ATOM
      1 C         140.6773  141.1094  167.4861 C.3     1  UNL1        0.0847
      2 F         141.1584  137.3019  163.9830 F       1  UNL1       -0.2042
      3 C         140.3346  138.0354  164.9995 C.ar    1  UNL1        0.1399
      4 C         138.9274  137.5988  165.2808 C.ar    1  UNL1        0.0296
      5 C         138.1035  138.3323  166.2973 C.ar    1  UNL1        0.0020
      6 C         138.6868  139.5025  167.0324 C.ar    1  UNL1       -0.0028
      7 C         140.0940  139.9391  166.7510 C.ar    1  UNL1       -0.0052
      8 C         140.9178  139.2056  165.7346 C.ar    1  UNL1        0.0267
      9 N         141.1937  140.9355  168.8837 N.3     1  UNL1       -0.2676
     10 C         140.4975  141.6080  170.0295 C.3     1  UNL1        0.0896
     11 C         141.0138  141.4340  171.4271 C.3     1  UNL1        0.0862
     12 N         142.2263  140.5876  171.6788 N.3     1  UNL1       -0.2951
     13 C         142.9225  139.9150  170.5329 C.3     1  UNL1        0.0862
     14 C         142.4062  140.0890  169.1353 C.3     1  UNL1        0.0896
     15 H         141.9421  139.8506  172.3241 H       1  UNL1        0.1233
     16 C         140.7443  142.4535  166.8237 C.3     1  UNL1        0.0499
     17 C         141.7525  142.7073  165.7423 C.ar    1  UNL1        0.0137
     18 C         143.2180  142.5982  166.0426 C.ar    1  UNL1       -0.0012
     19 C         144.2262  142.8520  164.9613 C.ar    1  UNL1       -0.0001
     20 C         143.7687  143.2148  163.5797 C.ar    1  UNL1        0.0031
     21 C         142.3032  143.3238  163.2793 C.ar    1  UNL1        0.0369
     22 C         141.2950  143.0701  164.3606 C.ar    1  UNL1        0.1428
     23 O         139.8295  143.1791  164.0602 O.3     1  UNL1       -0.4048
     24 C         138.9824  141.9427  163.9991 C.3     1  UNL1        0.5753
     25 F         138.1353  140.7063  163.9379 F       1  UNL1       -0.1328
     26 F         137.9060  142.6418  164.7753 F       1  UNL1       -0.1328
     27 F         140.0588  141.2437  163.2228 F       1  UNL1       -0.1328
@<TRIPOS>BOND
     1     2     3    1
     2     3     4   ar
     3     4     5   ar
     4     5     6   ar
     5     6     7   ar
     6     7     1    1
     7     1    16    1
     8    16    17    1
     9    17    18   ar
    10    18    19   ar
    11    19    20   ar
    12    20    21   ar
    13    21    22   ar
    14    22    23    1
    15    23    24    1
    16    24    25    1
    17    24    26    1
    18    24    27    1
    19     1     9    1
    20     9    10    1
    21    10    11    1
    22    11    12    1
    23    12    13    1
    24    13    14    1
    25     7     8   ar
    26     8     3   ar
    27    22    17   ar
    28    14     9    1
    29    12    15    1
@<TRIPOS>MOLECULE
*****
 27 29 0 0 0
SMALL
GASTEIGER

@<TRIPOS>ATOM
      1 C         140.5226  141.2915  165.5874 C.3     1  UNL1        0.0847
      2 F         140.6948  144.2970  169.8227 F       1  UNL1       -0.2042
      3 C         140.3987  142.9747  169.1793 C.ar    1  UNL1        0.1399
      4 C         139.8927  141.8329  170.0101 C.ar    1  UNL1        0.0296
      5 C         139.5967  140.5107  169.3667 C.ar    1  UNL1        0.0020
      6 C         139.8067  140.3302  167.8925 C.ar    1  UNL1       -0.0028
      7 C         140.3127  141.4719  167.0617 C.ar    1  UNL1       -0.0052
      8 C         140.6087  142.7942  167.7051 C.ar    1  UNL1        0.0267
      9 N         139.3453  141.2795  164.6581 N.3     1  UNL1       -0.2676
     10 C         138.5287  142.5230  164.4660 C.3     1  UNL1        0.0896
     11 C         137.3513  142.5110  163.5367 C.3     1  UNL1        0.0862
     12 N         136.9905  141.2555  162.7995 N.3     1  UNL1       -0.2951
     13 C         137.8070  140.0119  162.9916 C.3     1  UNL1        0.0862
     14 C         138.9844  140.0239  163.9209 C.3     1  UNL1        0.0896
     15 H         137.0231  141.4785  161.8047 H       1  UNL1        0.1233
     16 C         141.9099  141.1230  165.0426 C.3     1  UNL1        0.0499
     17 C         142.5767  142.2588  164.3245 C.ar    1  UNL1        0.0137
     18 C         142.1879  143.6739  164.6349 C.ar    1  UNL1       -0.0012
     19 C         142.8547  144.8095  163.9168 C.ar    1  UNL1       -0.0001
     20 C         143.9102  144.5301  162.8884 C.ar    1  UNL1        0.0031
     21 C         144.2990  143.1151  162.5780 C.ar    1  UNL1        0.0369
     22 C         143.6323  141.9794  163.2960 C.ar    1  UNL1        0.1428
     23 O         144.0211  140.5643  162.9856 O.3     1  UNL1       -0.4048
     24 C         144.7982  139.7630  163.9876 C.3     1  UNL1        0.5753
     25 F         145.5753  138.9617  164.9897 F       1  UNL1       -0.1328
     26 F         143.8033  138.6469  163.8666 F       1  UNL1       -0.1328
     27 F         145.7930  140.8790  164.1086 F       1  UNL1       -0.1328
@<TRIPOS>BOND
     1     2     3    1
     2     3     4   ar
     3     4     5   ar
     4     5     6   ar
     5     6     7   ar
     6     7     1    1
     7     1    16    1
     8    16    17    1
     9    17    18   ar
    10    18    19   ar
    11    19    20   ar
    12    20    21   ar
    13    21    22   ar
    14    22    23    1
    15    23    24    1
    16    24    25    1
    17    24    26    1
    18    24    27    1
    19     1     9    1
    20     9    10    1
    21    10    11    1
    22    11    12    1
    23    12    13    1
    24    13    14    1
    25     7     8   ar
    26     8     3   ar
    27    22    17   ar
    28    14     9    1
    29    12    15    1
@<TRIPOS>MOLECULE
*****
 27 29 0 0 0
SMALL
GASTEIGER

@<TRIPOS>ATOM
      1 C         140.1760  141.2958  166.0820 C.3     1  UNL1        0.0847
      2 F         140.7552  144.5495  170.0917 F       1  UNL1       -0.2042
      3 C         140.3965  143.1933  169.5606 C.ar    1  UNL1        0.1399
      4 C         139.9687  142.1077  170.5032 C.ar    1  UNL1        0.0296
      5 C         139.6100  140.7516  169.9721 C.ar    1  UNL1        0.0020
      6 C         139.6791  140.4809  168.4984 C.ar    1  UNL1       -0.0028
      7 C         140.1069  141.5664  167.5558 C.ar    1  UNL1       -0.0052
      8 C         140.4656  142.9226  168.0869 C.ar    1  UNL1        0.0267
      9 N         140.4819  139.9133  165.5868 N.3     1  UNL1       -0.2676
     10 C         141.8865  139.3902  165.6429 C.3     1  UNL1        0.0896
     11 C         142.1924  138.0077  165.1478 C.3     1  UNL1        0.0862
     12 N         141.0936  137.1483  164.5966 N.3     1  UNL1       -0.2951
     13 C         139.6888  137.6713  164.5405 C.3     1  UNL1        0.0862
     14 C         139.3829  139.0538  165.0356 C.3     1  UNL1        0.0896
     15 H         141.0698  136.3009  165.1639 H       1  UNL1        0.1233
     16 C         139.9393  142.4076  165.1033 C.3     1  UNL1        0.0499
     17 C         141.0746  143.2959  164.6883 C.ar    1  UNL1        0.0137
     18 C         142.4910  142.8624  164.9244 C.ar    1  UNL1       -0.0012
     19 C         143.6263  143.7506  164.5094 C.ar    1  UNL1       -0.0001
     20 C         143.3451  145.0722  163.8583 C.ar    1  UNL1        0.0031
     21 C         141.9286  145.5057  163.6221 C.ar    1  UNL1        0.0369
     22 C         140.7934  144.6176  164.0371 C.ar    1  UNL1        0.1428
     23 O         139.3769  145.0511  163.8010 O.3     1  UNL1       -0.4048
     24 C         138.4843  144.2425  162.9070 C.3     1  UNL1        0.5753
     25 F         137.5916  143.4338  162.0129 F       1  UNL1       -0.1328
     26 F         137.4050  144.2832  163.9478 F       1  UNL1       -0.1328
     27 F         139.5636  144.2017  161.8661 F       1  UNL1       -0.1328
@<TRIPOS>BOND
     1     2     3    1
     2     3     4   ar
     3     4     5   ar
     4     5     6   ar
     5     6     7   ar
     6     7     1    1
     7     1    16    1
     8    16    17    1
     9    17    18   ar
    10    18    19   ar
    11    19    20   ar
    12    20    21   ar
    13    21    22   ar
    14    22    23    1
    15    23    24    1
    16    24    25    1
    17    24    26    1
    18    24    27    1
    19     1     9    1
    20     9    10    1
    21    10    11    1
    22    11    12    1
    23    12    13    1
    24    13    14    1
    25     7     8   ar
    26     8     3   ar
    27    22    17   ar
    28    14     9    1
    29    12    15    1
@<TRIPOS>MOLECULE
*****
 27 29 0 0 0
SMALL
GASTEIGER

@<TRIPOS>ATOM
      1 C         142.3032  141.1389  165.6939 C.3     1  UNL1        0.0847
      2 F         142.3785  138.4714  170.1525 F       1  UNL1       -0.2042
      3 C         142.6257  139.7420  169.3946 C.ar    1  UNL1        0.1399
      4 C         143.1578  140.9494  170.1079 C.ar    1  UNL1        0.0296
      5 C         143.4049  142.2200  169.3500 C.ar    1  UNL1        0.0020
      6 C         143.1201  142.2832  167.8787 C.ar    1  UNL1       -0.0028
      7 C         142.5881  141.0758  167.1653 C.ar    1  UNL1       -0.0052
      8 C         142.3409  139.8052  167.9232 C.ar    1  UNL1        0.0267
      9 N         143.3812  141.5575  164.7386 N.3     1  UNL1       -0.2676
     10 C         144.5259  140.6330  164.4475 C.3     1  UNL1        0.0896
     11 C         145.6039  141.0516  163.4922 C.3     1  UNL1        0.0862
     12 N         145.5372  142.3949  162.8279 N.3     1  UNL1       -0.2951
     13 C         144.3924  143.3195  163.1190 C.3     1  UNL1        0.0862
     14 C         143.3144  142.9009  164.0743 C.3     1  UNL1        0.0896
     15 H         145.5308  142.2259  161.8220 H       1  UNL1        0.1233
     16 C         140.9404  140.7834  165.1779 C.3     1  UNL1        0.0499
     17 C         139.8977  141.8497  165.0167 C.ar    1  UNL1        0.0137
     18 C         140.1522  143.2325  165.5392 C.ar    1  UNL1       -0.0012
     19 C         139.1096  144.2988  165.3780 C.ar    1  UNL1       -0.0001
     20 C         137.8126  143.9823  164.6943 C.ar    1  UNL1        0.0031
     21 C         137.5581  142.5994  164.1718 C.ar    1  UNL1        0.0369
     22 C         138.6007  141.5332  164.3330 C.ar    1  UNL1        0.1428
     23 O         138.3463  140.1503  163.8104 O.3     1  UNL1       -0.4048
     24 C         138.4407  138.9710  164.7325 C.3     1  UNL1        0.5753
     25 F         138.5352  137.7916  165.6546 F       1  UNL1       -0.1328
     26 F         139.2294  138.2249  163.6974 F       1  UNL1       -0.1328
     27 F         137.6521  139.7170  165.7675 F       1  UNL1       -0.1328
@<TRIPOS>BOND
     1     2     3    1
     2     3     4   ar
     3     4     5   ar
     4     5     6   ar
     5     6     7   ar
     6     7     1    1
     7     1    16    1
     8    16    17    1
     9    17    18   ar
    10    18    19   ar
    11    19    20   ar
    12    20    21   ar
    13    21    22   ar
    14    22    23    1
    15    23    24    1
    16    24    25    1
    17    24    26    1
    18    24    27    1
    19     1     9    1
    20     9    10    1
    21    10    11    1
    22    11    12    1
    23    12    13    1
    24    13    14    1
    25     7     8   ar
    26     8     3   ar
    27    22    17   ar
    28    14     9    1
    29    12    15    1
