@<TRIPOS>MOLECULE
*****
 36 40 0 0 0
SMALL
GASTEIGER

@<TRIPOS>ATOM
      1 C         140.8115  141.5320  169.6752 C.ar    1  UNL1        0.0684
      2 C         141.4153  140.2915  170.2637 C.ar    1  UNL1        0.0134
      3 C         142.2638  139.3938  169.4126 C.ar    1  UNL1        0.0373
      4 C         142.5086  139.7368  167.9731 C.ar    1  UNL1        0.1359
      5 C         141.9048  140.9774  167.3846 C.ar    1  UNL1        0.0285
      6 C         141.0563  141.8750  168.2356 C.ar    1  UNL1        0.0104
      7 C         142.0219  141.5005  165.9836 C.3     1  UNL1        0.1022
      8 N         142.7717  140.9123  164.8252 N.3     1  UNL1       -0.2678
      9 C         143.5895  139.6556  164.7817 C.3     1  UNL1        0.1061
     10 C         143.8595  138.6768  165.8858 C.3     1  UNL1        0.2215
     11 O         143.3785  138.7129  167.3061 O.3     1  UNL1       -0.4743
     12 C         142.6932  141.6825  163.5405 C.3     1  UNL1        0.0613
     13 C         143.8939  142.4283  163.0385 C.3     1  UNL1        0.0375
     14 C         143.8153  143.1986  161.7538 C.3     1  UNL1        0.0950
     15 N         142.5360  143.2232  160.9711 N.pl3   1  UNL1       -0.2784
     16 C         141.3352  142.4775  161.4731 C.3     1  UNL1        0.0950
     17 C         141.4138  141.7071  162.7578 C.3     1  UNL1        0.0375
     18 C         142.4575  143.9935  159.6864 C.ar    1  UNL1        0.2194
     19 N         141.8644  145.3603  159.5128 N.ar    1  UNL1       -0.1117
     20 N         141.9986  145.7439  158.0689 N.ar    1  UNL1       -0.1121
     21 C         142.6747  144.6141  157.3501 C.ar    1  UNL1        0.2131
     22 N         143.0085  144.5734  155.8883 N.pl3   1  UNL1       -0.3277
     23 N         142.9583  143.5324  158.3498 N.ar    1  UNL1       -0.2979
     24 H         142.7810  145.3369  155.3100 H       1  UNL1        0.1451
     25 H         143.4552  143.7831  155.5073 H       1  UNL1        0.1451
     26 H         143.3962  142.6710  158.1616 H       1  UNL1        0.1713
     27 N         139.1145  143.3273  171.3773 N.1     1  UNL1       -0.1908
     28 C         139.9630  142.4297  170.5262 C.1     1  UNL1        0.1004
     29 C         144.2207  139.3353  163.4591 C.3     1  UNL1        0.0461
     30 C         143.3580  139.0356  162.2693 C.ar    1  UNL1       -0.0207
     31 C         143.7793  139.4910  160.9036 C.ar    1  UNL1       -0.0034
     32 C         142.9166  139.1913  159.7137 C.ar    1  UNL1        0.0111
     33 C         141.6324  138.4361  159.8895 C.ar    1  UNL1        0.0577
     34 CL        140.7697  138.1364  158.6997 Cl      1  UNL1       -0.0822
     35 C         141.2111  137.9807  161.2552 C.ar    1  UNL1        0.0111
     36 C         142.0740  138.2805  162.4451 C.ar    1  UNL1       -0.0034
@<TRIPOS>BOND
     1    27    28    3
     2    28     1    1
     3     1     2   ar
     4     2     3   ar
     5     3     4   ar
     6     4     5   ar
     7     5     6   ar
     8     5     7    1
     9     7     8    1
    10     8    12    1
    11    12    13    1
    12    13    14    1
    13    14    15    1
    14    15    18    1
    15    18    19   ar
    16    19    20   ar
    17    20    21   ar
    18    21    22    1
    19    21    23   ar
    20    15    16    1
    21    16    17    1
    22     8     9    1
    23     9    29    1
    24    29    30    1
    25    30    31   ar
    26    31    32   ar
    27    32    33   ar
    28    33    34    1
    29    33    35   ar
    30    35    36   ar
    31     9    10    1
    32    10    11    1
    33     6     1   ar
    34    17    12    1
    35    36    30   ar
    36    11     4    1
    37    23    18   ar
    38    22    24    1
    39    22    25    1
    40    23    26    1
@<TRIPOS>MOLECULE
*****
 36 40 0 0 0
SMALL
GASTEIGER

@<TRIPOS>ATOM
      1 C         140.8848  141.7564  168.8152 C.ar    1  UNL1        0.0684
      2 C         139.7950  140.8780  169.3542 C.ar    1  UNL1        0.0134
      3 C         139.1579  139.8461  168.4714 C.ar    1  UNL1        0.0373
      4 C         139.6106  139.6927  167.0496 C.ar    1  UNL1        0.1359
      5 C         140.7005  140.5711  166.5107 C.ar    1  UNL1        0.0285
      6 C         141.3376  141.6030  167.3935 C.ar    1  UNL1        0.0104
      7 C         141.2968  140.5838  165.1344 C.3     1  UNL1        0.1022
      8 N         140.9505  139.7212  163.9570 N.3     1  UNL1       -0.2678
      9 C         139.9224  138.6328  163.8654 C.3     1  UNL1        0.1061
     10 C         138.9866  138.1383  164.9283 C.3     1  UNL1        0.2215
     11 O         138.8479  138.6100  166.3455 O.3     1  UNL1       -0.4743
     12 C         141.7362  139.9813  162.7061 C.3     1  UNL1        0.0613
     13 C         141.4447  141.1964  161.8763 C.3     1  UNL1        0.0375
     14 C         142.2305  141.4565  160.6253 C.3     1  UNL1        0.0950
     15 N         143.3079  140.5015  160.2042 N.pl3   1  UNL1       -0.2784
     16 C         143.5994  139.2865  161.0340 C.3     1  UNL1        0.0950
     17 C         142.8136  139.0264  162.2850 C.3     1  UNL1        0.0375
     18 C         144.0936  140.7617  158.9532 C.ar    1  UNL1        0.2194
     19 N         144.3435  139.7782  157.8486 N.ar    1  UNL1       -0.1117
     20 N         145.1718  140.4596  156.7998 N.ar    1  UNL1       -0.1121
     21 C         145.4337  141.8642  157.2565 C.ar    1  UNL1        0.2131
     22 N         146.2234  142.9002  156.5128 N.pl3   1  UNL1       -0.3277
     23 N         144.7674  142.0509  158.5873 N.ar    1  UNL1       -0.2979
     24 H         146.6246  142.6812  155.6408 H       1  UNL1        0.1451
     25 H         146.3405  143.7992  156.8966 H       1  UNL1        0.1451
     26 H         144.7716  142.8749  159.1260 H       1  UNL1        0.1713
     27 N         142.1591  143.8201  170.5808 N.1     1  UNL1       -0.1908
     28 C         141.5220  142.7883  169.6980 C.1     1  UNL1        0.1004
     29 C         139.8159  137.9485  162.5348 C.3     1  UNL1        0.0461
     30 C         139.2315  138.6772  161.3612 C.ar    1  UNL1       -0.0207
     31 C         138.0362  139.5639  161.5485 C.ar    1  UNL1       -0.0034
     32 C         137.4518  140.2926  160.3749 C.ar    1  UNL1        0.0111
     33 C         138.0626  140.1347  159.0140 C.ar    1  UNL1        0.0577
     34 CL        137.4782  140.8635  157.8404 Cl      1  UNL1       -0.0822
     35 C         139.2579  139.2480  158.8267 C.ar    1  UNL1        0.0111
     36 C         139.8423  138.5193  160.0004 C.ar    1  UNL1       -0.0034
@<TRIPOS>BOND
     1    27    28    3
     2    28     1    1
     3     1     2   ar
     4     2     3   ar
     5     3     4   ar
     6     4     5   ar
     7     5     6   ar
     8     5     7    1
     9     7     8    1
    10     8    12    1
    11    12    13    1
    12    13    14    1
    13    14    15    1
    14    15    18    1
    15    18    19   ar
    16    19    20   ar
    17    20    21   ar
    18    21    22    1
    19    21    23   ar
    20    15    16    1
    21    16    17    1
    22     8     9    1
    23     9    29    1
    24    29    30    1
    25    30    31   ar
    26    31    32   ar
    27    32    33   ar
    28    33    34    1
    29    33    35   ar
    30    35    36   ar
    31     9    10    1
    32    10    11    1
    33     6     1   ar
    34    17    12    1
    35    36    30   ar
    36    11     4    1
    37    23    18   ar
    38    22    24    1
    39    22    25    1
    40    23    26    1
@<TRIPOS>MOLECULE
*****
 36 40 0 0 0
SMALL
GASTEIGER

@<TRIPOS>ATOM
      1 C         139.7975  138.7315  156.3913 C.ar    1  UNL1        0.0684
      2 C         141.1732  138.7111  155.7937 C.ar    1  UNL1        0.0134
      3 C         142.3785  138.6956  156.6864 C.ar    1  UNL1        0.0373
      4 C         142.2082  138.7004  158.1766 C.ar    1  UNL1        0.1359
      5 C         140.8326  138.7207  158.7742 C.ar    1  UNL1        0.0285
      6 C         139.6273  138.7362  157.8815 C.ar    1  UNL1        0.0104
      7 C         140.4421  138.7285  160.2225 C.3     1  UNL1        0.1022
      8 N         141.3308  138.7179  161.4309 N.3     1  UNL1       -0.2678
      9 C         142.8295  138.6969  161.4893 C.3     1  UNL1        0.1061
     10 C         143.8096  138.6813  160.3540 C.3     1  UNL1        0.2215
     11 O         143.5332  138.6828  158.8796 O.3     1  UNL1       -0.4743
     12 C         140.6279  138.7299  162.7558 C.3     1  UNL1        0.0613
     13 C         140.5943  137.4894  163.5985 C.3     1  UNL1        0.0375
     14 C         139.8913  137.5015  164.9234 C.3     1  UNL1        0.0950
     15 N         139.2218  138.7541  165.4058 N.pl3   1  UNL1       -0.2784
     16 C         139.2553  139.9946  164.5633 C.3     1  UNL1        0.0950
     17 C         139.9583  139.9825  163.2383 C.3     1  UNL1        0.0375
     18 C         138.5188  138.7661  166.7309 C.ar    1  UNL1        0.2194
     19 N         137.2777  137.9982  167.0774 N.ar    1  UNL1       -0.1117
     20 N         136.9253  138.3055  168.5027 N.ar    1  UNL1       -0.1121
     21 C         137.9486  139.2634  169.0369 C.ar    1  UNL1        0.2131
     22 N         137.9812  139.8361  170.4229 N.pl3   1  UNL1       -0.3277
     23 N         138.9333  139.5480  167.9419 N.ar    1  UNL1       -0.2979
     24 H         137.2865  139.5875  171.0747 H       1  UNL1        0.1451
     25 H         138.6973  140.4605  170.6808 H       1  UNL1        0.1451
     26 H         139.7146  140.1435  168.0067 H       1  UNL1        0.1713
     27 N         137.3868  138.7625  154.6059 N.1     1  UNL1       -0.1908
     28 C         138.5922  138.7470  155.4986 C.1     1  UNL1        0.1004
     29 C         143.4271  138.6907  162.8652 C.3     1  UNL1        0.0461
     30 C         143.7747  139.9856  163.5378 C.ar    1  UNL1       -0.0207
     31 C         143.1078  140.3637  164.8271 C.ar    1  UNL1       -0.0034
     32 C         143.4553  141.6585  165.4997 C.ar    1  UNL1        0.0111
     33 C         144.4698  142.5754  164.8830 C.ar    1  UNL1        0.0577
     34 CL        144.8173  143.8703  165.5556 Cl      1  UNL1       -0.0822
     35 C         145.1366  142.1974  163.5937 C.ar    1  UNL1        0.0111
     36 C         144.7891  140.9024  162.9211 C.ar    1  UNL1       -0.0034
@<TRIPOS>BOND
     1    27    28    3
     2    28     1    1
     3     1     2   ar
     4     2     3   ar
     5     3     4   ar
     6     4     5   ar
     7     5     6   ar
     8     5     7    1
     9     7     8    1
    10     8    12    1
    11    12    13    1
    12    13    14    1
    13    14    15    1
    14    15    18    1
    15    18    19   ar
    16    19    20   ar
    17    20    21   ar
    18    21    22    1
    19    21    23   ar
    20    15    16    1
    21    16    17    1
    22     8     9    1
    23     9    29    1
    24    29    30    1
    25    30    31   ar
    26    31    32   ar
    27    32    33   ar
    28    33    34    1
    29    33    35   ar
    30    35    36   ar
    31     9    10    1
    32    10    11    1
    33     6     1   ar
    34    17    12    1
    35    36    30   ar
    36    11     4    1
    37    23    18   ar
    38    22    24    1
    39    22    25    1
    40    23    26    1
@<TRIPOS>MOLECULE
*****
 36 40 0 0 0
SMALL
GASTEIGER

@<TRIPOS>ATOM
      1 C         141.4938  142.1691  169.2225 C.ar    1  UNL1        0.0684
      2 C         140.7225  140.9846  169.7245 C.ar    1  UNL1        0.0134
      3 C         139.8888  140.1756  168.7756 C.ar    1  UNL1        0.0373
      4 C         139.8265  140.5510  167.3247 C.ar    1  UNL1        0.1359
      5 C         140.5979  141.7355  166.8227 C.ar    1  UNL1        0.0285
      6 C         141.4315  142.5445  167.7716 C.ar    1  UNL1        0.0104
      7 C         140.6744  142.2782  165.4265 C.3     1  UNL1        0.1022
      8 N         139.9984  141.7706  164.1873 N.3     1  UNL1       -0.2678
      9 C         139.0791  140.5948  164.0384 C.3     1  UNL1        0.1061
     10 C         138.6086  139.6362  165.0919 C.3     1  UNL1        0.2215
     11 O         138.9412  139.6167  166.5544 O.3     1  UNL1       -0.4743
     12 C         140.2790  142.5406  162.9310 C.3     1  UNL1        0.0613
     13 C         141.5765  142.3437  162.2045 C.3     1  UNL1        0.0375
     14 C         141.8570  143.1138  160.9482 C.3     1  UNL1        0.0950
     15 N         140.8400  144.0807  160.4184 N.pl3   1  UNL1       -0.2784
     16 C         139.5425  144.2776  161.1448 C.3     1  UNL1        0.0950
     17 C         139.2620  143.5075  162.4011 C.3     1  UNL1        0.0375
     18 C         141.1206  144.8507  159.1620 C.ar    1  UNL1        0.2194
     19 N         142.4661  145.0420  158.5272 N.ar    1  UNL1       -0.1117
     20 N         142.2822  145.8742  157.2927 N.ar    1  UNL1       -0.1121
     21 C         140.8229  146.1971  157.1647 C.ar    1  UNL1        0.2131
     22 N         140.1923  147.0099  156.0731 N.pl3   1  UNL1       -0.3277
     23 N         140.1051  145.5646  158.3200 N.ar    1  UNL1       -0.2979
     24 H         140.7502  147.3853  155.3540 H       1  UNL1        0.1451
     25 H         139.2206  147.1679  156.0757 H       1  UNL1        0.1451
     26 H         139.1373  145.6100  158.4948 H       1  UNL1        0.1713
     27 N         143.1610  143.7873  171.1204 N.1     1  UNL1       -0.1908
     28 C         142.3274  142.9782  170.1715 C.1     1  UNL1        0.1004
     29 C         138.5618  140.3444  162.6528 C.3     1  UNL1        0.0461
     30 C         139.4625  139.7475  161.6125 C.ar    1  UNL1       -0.0207
     31 C         139.3195  140.1520  160.1752 C.ar    1  UNL1       -0.0034
     32 C         140.2202  139.5551  159.1348 C.ar    1  UNL1        0.0111
     33 C         141.2640  138.5536  159.5318 C.ar    1  UNL1        0.0577
     34 CL        142.1647  137.9567  158.4914 Cl      1  UNL1       -0.0822
     35 C         141.4071  138.1491  160.9691 C.ar    1  UNL1        0.0111
     36 C         140.5063  138.7460  162.0095 C.ar    1  UNL1       -0.0034
@<TRIPOS>BOND
     1    27    28    3
     2    28     1    1
     3     1     2   ar
     4     2     3   ar
     5     3     4   ar
     6     4     5   ar
     7     5     6   ar
     8     5     7    1
     9     7     8    1
    10     8    12    1
    11    12    13    1
    12    13    14    1
    13    14    15    1
    14    15    18    1
    15    18    19   ar
    16    19    20   ar
    17    20    21   ar
    18    21    22    1
    19    21    23   ar
    20    15    16    1
    21    16    17    1
    22     8     9    1
    23     9    29    1
    24    29    30    1
    25    30    31   ar
    26    31    32   ar
    27    32    33   ar
    28    33    34    1
    29    33    35   ar
    30    35    36   ar
    31     9    10    1
    32    10    11    1
    33     6     1   ar
    34    17    12    1
    35    36    30   ar
    36    11     4    1
    37    23    18   ar
    38    22    24    1
    39    22    25    1
    40    23    26    1
@<TRIPOS>MOLECULE
*****
 36 40 0 0 0
SMALL
GASTEIGER

@<TRIPOS>ATOM
      1 C         140.8740  141.5896  169.2418 C.ar    1  UNL1        0.0684
      2 C         141.5425  140.3259  169.6956 C.ar    1  UNL1        0.0134
      3 C         142.3222  139.4972  168.7181 C.ar    1  UNL1        0.0373
      4 C         142.4333  139.9323  167.2869 C.ar    1  UNL1        0.1359
      5 C         141.7647  141.1960  166.8332 C.ar    1  UNL1        0.0285
      6 C         140.9851  142.0247  167.8106 C.ar    1  UNL1        0.0104
      7 C         141.7499  141.8063  165.4630 C.3     1  UNL1        0.1022
      8 N         142.4001  141.3035  164.2082 N.3     1  UNL1       -0.2678
      9 C         143.2256  140.0663  164.0137 C.3     1  UNL1        0.1061
     10 C         143.6048  139.0263  165.0259 C.3     1  UNL1        0.2215
     11 O         143.2522  138.9666  166.4827 O.3     1  UNL1       -0.4743
     12 C         142.1980  142.1499  162.9864 C.3     1  UNL1        0.0613
     13 C         140.8491  142.2146  162.3334 C.3     1  UNL1        0.0375
     14 C         140.6471  143.0610  161.1117 C.3     1  UNL1        0.0950
     15 N         141.7939  143.8427  160.5428 N.pl3   1  UNL1       -0.2784
     16 C         143.1428  143.7781  161.1958 C.3     1  UNL1        0.0950
     17 C         143.3448  142.9317  162.4176 C.3     1  UNL1        0.0375
     18 C         141.5918  144.6892  159.3210 C.ar    1  UNL1        0.2194
     19 N         142.5966  144.9181  158.2311 N.ar    1  UNL1       -0.1117
     20 N         141.9753  145.8256  157.2110 N.ar    1  UNL1       -0.1121
     21 C         140.5865  146.1575  157.6707 C.ar    1  UNL1        0.2131
     22 N         139.6068  147.0373  156.9523 N.pl3   1  UNL1       -0.3277
     23 N         140.3496  145.4552  158.9746 N.ar    1  UNL1       -0.2979
     24 H         139.8564  147.4562  156.0970 H       1  UNL1        0.1451
     25 H         138.7142  147.1959  157.3361 H       1  UNL1        0.1451
     26 H         139.5237  145.4907  159.5093 H       1  UNL1        0.1713
     27 N         139.3147  143.2470  171.1967 N.1     1  UNL1       -0.1908
     28 C         140.0943  142.4183  170.2193 C.1     1  UNL1        0.1004
     29 C         143.7398  139.8390  162.6230 C.3     1  UNL1        0.0461
     30 C         142.7952  139.4325  161.5311 C.ar    1  UNL1       -0.0207
     31 C         141.5656  138.6389  161.8601 C.ar    1  UNL1       -0.0034
     32 C         140.6209  138.2324  160.7682 C.ar    1  UNL1        0.0111
     33 C         140.9058  138.6195  159.3472 C.ar    1  UNL1        0.0577
     34 CL        139.9611  138.2130  158.2553 Cl      1  UNL1       -0.0822
     35 C         142.1354  139.4131  159.0182 C.ar    1  UNL1        0.0111
     36 C         143.0801  139.8196  160.1102 C.ar    1  UNL1       -0.0034
@<TRIPOS>BOND
     1    27    28    3
     2    28     1    1
     3     1     2   ar
     4     2     3   ar
     5     3     4   ar
     6     4     5   ar
     7     5     6   ar
     8     5     7    1
     9     7     8    1
    10     8    12    1
    11    12    13    1
    12    13    14    1
    13    14    15    1
    14    15    18    1
    15    18    19   ar
    16    19    20   ar
    17    20    21   ar
    18    21    22    1
    19    21    23   ar
    20    15    16    1
    21    16    17    1
    22     8     9    1
    23     9    29    1
    24    29    30    1
    25    30    31   ar
    26    31    32   ar
    27    32    33   ar
    28    33    34    1
    29    33    35   ar
    30    35    36   ar
    31     9    10    1
    32    10    11    1
    33     6     1   ar
    34    17    12    1
    35    36    30   ar
    36    11     4    1
    37    23    18   ar
    38    22    24    1
    39    22    25    1
    40    23    26    1
@<TRIPOS>MOLECULE
*****
 36 40 0 0 0
SMALL
GASTEIGER

@<TRIPOS>ATOM
      1 C         142.3208  138.2925  156.6251 C.ar    1  UNL1        0.0684
      2 C         141.1187  138.5595  155.7686 C.ar    1  UNL1        0.0134
      3 C         139.8245  138.9770  156.4018 C.ar    1  UNL1        0.0373
      4 C         139.7324  139.1273  157.8913 C.ar    1  UNL1        0.1359
      5 C         140.9345  138.8603  158.7478 C.ar    1  UNL1        0.0285
      6 C         142.2287  138.4428  158.1147 C.ar    1  UNL1        0.0104
      7 C         141.0583  138.9500  160.2399 C.3     1  UNL1        0.1022
      8 N         140.0105  139.3291  161.2443 N.3     1  UNL1       -0.2678
      9 C         138.5802  139.7119  161.0043 C.3     1  UNL1        0.1061
     10 C         137.8444  139.8103  159.7009 C.3     1  UNL1        0.2215
     11 O         138.3572  139.5501  158.3154 O.3     1  UNL1       -0.4743
     12 C         140.4514  139.3246  162.6779 C.3     1  UNL1        0.0613
     13 C         139.9964  138.2318  163.5993 C.3     1  UNL1        0.0375
     14 C         140.4374  138.2275  165.0329 C.3     1  UNL1        0.0950
     15 N         141.3333  139.3159  165.5454 N.pl3   1  UNL1       -0.2784
     16 C         141.7883  140.4087  164.6242 C.3     1  UNL1        0.0950
     17 C         141.3473  140.4131  163.1904 C.3     1  UNL1        0.0375
     18 C         141.7742  139.3115  166.9792 C.ar    1  UNL1        0.2194
     19 N         143.1070  138.8506  167.4902 N.ar    1  UNL1       -0.1117
     20 N         143.1164  139.0214  168.9805 N.ar    1  UNL1       -0.1121
     21 C         141.7892  139.5878  169.3903 C.ar    1  UNL1        0.2131
     22 N         141.3660  139.9171  170.7912 N.pl3   1  UNL1       -0.3277
     23 N         140.9598  139.7671  168.1535 N.ar    1  UNL1       -0.2979
     24 H         141.9847  139.7632  171.5414 H       1  UNL1        0.1451
     25 H         140.4695  140.2871  170.9605 H       1  UNL1        0.1451
     26 H         140.0420  140.1215  168.1186 H       1  UNL1        0.1713
     27 N         144.9091  137.4576  155.3589 N.1     1  UNL1       -0.1908
     28 C         143.6150  137.8750  155.9920 C.1     1  UNL1        0.1004
     29 C         137.7798  140.0398  162.2299 C.3     1  UNL1        0.0461
     30 C         138.0214  141.3268  162.9613 C.ar    1  UNL1       -0.0207
     31 C         138.1411  142.6124  162.1978 C.ar    1  UNL1       -0.0034
     32 C         138.3827  143.8994  162.9293 C.ar    1  UNL1        0.0111
     33 C         138.5046  143.9010  164.4243 C.ar    1  UNL1        0.0577
     34 CL        138.7462  145.1880  165.1558 Cl      1  UNL1       -0.0822
     35 C         138.3849  142.6154  165.1879 C.ar    1  UNL1        0.0111
     36 C         138.1433  141.3283  164.4563 C.ar    1  UNL1       -0.0034
@<TRIPOS>BOND
     1    27    28    3
     2    28     1    1
     3     1     2   ar
     4     2     3   ar
     5     3     4   ar
     6     4     5   ar
     7     5     6   ar
     8     5     7    1
     9     7     8    1
    10     8    12    1
    11    12    13    1
    12    13    14    1
    13    14    15    1
    14    15    18    1
    15    18    19   ar
    16    19    20   ar
    17    20    21   ar
    18    21    22    1
    19    21    23   ar
    20    15    16    1
    21    16    17    1
    22     8     9    1
    23     9    29    1
    24    29    30    1
    25    30    31   ar
    26    31    32   ar
    27    32    33   ar
    28    33    34    1
    29    33    35   ar
    30    35    36   ar
    31     9    10    1
    32    10    11    1
    33     6     1   ar
    34    17    12    1
    35    36    30   ar
    36    11     4    1
    37    23    18   ar
    38    22    24    1
    39    22    25    1
    40    23    26    1
@<TRIPOS>MOLECULE
*****
 36 40 0 0 0
SMALL
GASTEIGER

@<TRIPOS>ATOM
      1 C         142.7733  137.6191  157.5325 C.ar    1  UNL1        0.0684
      2 C         142.9461  138.7282  156.5375 C.ar    1  UNL1        0.0134
      3 C         142.9983  140.1529  157.0039 C.ar    1  UNL1        0.0373
      4 C         142.8776  140.4685  158.4654 C.ar    1  UNL1        0.1359
      5 C         142.7048  139.3594  159.4603 C.ar    1  UNL1        0.0285
      6 C         142.6527  137.9347  158.9939 C.ar    1  UNL1        0.0104
      7 C         142.5662  139.4534  160.9509 C.3     1  UNL1        0.1022
      8 N         142.5661  140.6798  161.8148 N.3     1  UNL1       -0.2678
      9 C         142.7046  142.1149  161.4012 C.3     1  UNL1        0.1061
     10 C         142.8774  142.6782  160.0218 C.3     1  UNL1        0.2215
     11 O         142.9544  141.9455  158.7152 O.3     1  UNL1       -0.4743
     12 C         142.4063  140.4390  163.2866 C.3     1  UNL1        0.0613
     13 C         143.5935  140.5452  164.1973 C.3     1  UNL1        0.0375
     14 C         143.4337  140.3044  165.6691 C.3     1  UNL1        0.0950
     15 N         142.0866  139.9575  166.2304 N.pl3   1  UNL1       -0.2784
     16 C         140.8994  139.8514  165.3199 C.3     1  UNL1        0.0950
     17 C         141.0593  140.0921  163.8479 C.3     1  UNL1        0.0375
     18 C         141.9269  139.7168  167.7024 C.ar    1  UNL1        0.2194
     19 N         142.9572  139.1205  168.6151 N.ar    1  UNL1       -0.1117
     20 N         142.3759  139.0652  169.9968 N.ar    1  UNL1       -0.1121
     21 C         140.9865  139.6274  169.9380 C.ar    1  UNL1        0.2131
     22 N         140.0406  139.7630  171.0943 N.pl3   1  UNL1       -0.3277
     23 N         140.7090  140.0300  168.5200 N.ar    1  UNL1       -0.2979
     24 H         140.3159  139.4685  171.9925 H       1  UNL1        0.1451
     25 H         139.1446  140.1464  170.9550 H       1  UNL1        0.1451
     26 H         139.8741  140.4297  168.1848 H       1  UNL1        0.1713
     27 N         142.6690  134.7698  156.5996 N.1     1  UNL1       -0.1908
     28 C         142.7212  136.1944  157.0660 C.1     1  UNL1        0.1004
     29 C         142.6651  143.1197  162.5143 C.3     1  UNL1        0.0461
     30 C         141.3570  143.4782  163.1550 C.ar    1  UNL1       -0.0207
     31 C         141.2672  143.6255  164.6450 C.ar    1  UNL1       -0.0034
     32 C         139.9591  143.9840  165.2857 C.ar    1  UNL1        0.0111
     33 C         138.7409  144.1951  164.4363 C.ar    1  UNL1        0.0577
     34 CL        137.4328  144.5535  165.0770 Cl      1  UNL1       -0.0822
     35 C         138.8307  144.0477  162.9463 C.ar    1  UNL1        0.0111
     36 C         140.1389  143.6893  162.3056 C.ar    1  UNL1       -0.0034
@<TRIPOS>BOND
     1    27    28    3
     2    28     1    1
     3     1     2   ar
     4     2     3   ar
     5     3     4   ar
     6     4     5   ar
     7     5     6   ar
     8     5     7    1
     9     7     8    1
    10     8    12    1
    11    12    13    1
    12    13    14    1
    13    14    15    1
    14    15    18    1
    15    18    19   ar
    16    19    20   ar
    17    20    21   ar
    18    21    22    1
    19    21    23   ar
    20    15    16    1
    21    16    17    1
    22     8     9    1
    23     9    29    1
    24    29    30    1
    25    30    31   ar
    26    31    32   ar
    27    32    33   ar
    28    33    34    1
    29    33    35   ar
    30    35    36   ar
    31     9    10    1
    32    10    11    1
    33     6     1   ar
    34    17    12    1
    35    36    30   ar
    36    11     4    1
    37    23    18   ar
    38    22    24    1
    39    22    25    1
    40    23    26    1
@<TRIPOS>MOLECULE
*****
 36 40 0 0 0
SMALL
GASTEIGER

@<TRIPOS>ATOM
      1 C         137.8859  142.8766  155.3843 C.ar    1  UNL1        0.0684
      2 C         138.6360  144.0566  154.8414 C.ar    1  UNL1        0.0134
      3 C         139.5146  144.8680  155.7469 C.ar    1  UNL1        0.0373
      4 C         139.6430  144.4993  157.1951 C.ar    1  UNL1        0.1359
      5 C         138.8929  143.3192  157.7380 C.ar    1  UNL1        0.0285
      6 C         138.0143  142.5079  156.8325 C.ar    1  UNL1        0.0104
      7 C         138.8797  142.7832  159.1389 C.3     1  UNL1        0.1022
      8 N         139.6135  143.2950  160.3430 N.3     1  UNL1       -0.2678
      9 C         140.5416  144.4690  160.4434 C.3     1  UNL1        0.1061
     10 C         140.9652  145.4213  159.3647 C.3     1  UNL1        0.2215
     11 O         140.5653  145.4348  157.9190 O.3     1  UNL1       -0.4743
     12 C         139.3895  142.5317  161.6146 C.3     1  UNL1        0.0613
     13 C         138.3320  142.9772  162.5806 C.3     1  UNL1        0.0375
     14 C         138.1080  142.2139  163.8522 C.3     1  UNL1        0.0950
     15 N         138.9416  141.0049  164.1579 N.pl3   1  UNL1       -0.2784
     16 C         139.9991  140.5593  163.1920 C.3     1  UNL1        0.0950
     17 C         140.2230  141.3227  161.9203 C.3     1  UNL1        0.0375
     18 C         138.7175  140.2416  165.4296 C.ar    1  UNL1        0.2194
     19 N         139.4776  140.4199  166.7105 N.ar    1  UNL1       -0.1117
     20 N         138.9240  139.4545  167.7163 N.ar    1  UNL1       -0.1121
     21 C         137.8218  138.6795  167.0569 C.ar    1  UNL1        0.2131
     22 N         136.9928  137.6065  167.6983 N.pl3   1  UNL1       -0.3277
     23 N         137.6942  139.1660  165.6438 N.ar    1  UNL1       -0.2979
     24 H         137.1527  137.3558  168.6368 H       1  UNL1        0.1451
     25 H         136.2887  137.1530  167.1808 H       1  UNL1        0.1451
     26 H         137.0517  138.8370  164.9744 H       1  UNL1        0.1713
     27 N         136.1287  141.2539  153.5734 N.1     1  UNL1       -0.1908
     28 C         137.0073  142.0652  154.4788 C.1     1  UNL1        0.1004
     29 C         141.1230  144.7246  161.8024 C.3     1  UNL1        0.0461
     30 C         142.3376  143.9684  162.2528 C.ar    1  UNL1       -0.0207
     31 C         143.2759  143.3838  161.2390 C.ar    1  UNL1       -0.0034
     32 C         144.4904  142.6275  161.6894 C.ar    1  UNL1        0.0111
     33 C         144.7668  142.4559  163.1538 C.ar    1  UNL1        0.0577
     34 CL        145.9813  141.6997  163.6042 Cl      1  UNL1       -0.0822
     35 C         143.8285  143.0405  164.1676 C.ar    1  UNL1        0.0111
     36 C         142.6139  143.7968  163.7171 C.ar    1  UNL1       -0.0034
@<TRIPOS>BOND
     1    27    28    3
     2    28     1    1
     3     1     2   ar
     4     2     3   ar
     5     3     4   ar
     6     4     5   ar
     7     5     6   ar
     8     5     7    1
     9     7     8    1
    10     8    12    1
    11    12    13    1
    12    13    14    1
    13    14    15    1
    14    15    18    1
    15    18    19   ar
    16    19    20   ar
    17    20    21   ar
    18    21    22    1
    19    21    23   ar
    20    15    16    1
    21    16    17    1
    22     8     9    1
    23     9    29    1
    24    29    30    1
    25    30    31   ar
    26    31    32   ar
    27    32    33   ar
    28    33    34    1
    29    33    35   ar
    30    35    36   ar
    31     9    10    1
    32    10    11    1
    33     6     1   ar
    34    17    12    1
    35    36    30   ar
    36    11     4    1
    37    23    18   ar
    38    22    24    1
    39    22    25    1
    40    23    26    1
@<TRIPOS>MOLECULE
*****
 36 40 0 0 0
SMALL
GASTEIGER

@<TRIPOS>ATOM
      1 C         142.9128  141.8221  169.1062 C.ar    1  UNL1        0.0684
      2 C         142.9318  140.3738  169.4962 C.ar    1  UNL1        0.0134
      3 C         142.7596  139.3129  168.4499 C.ar    1  UNL1        0.0373
      4 C         142.5683  139.7003  167.0135 C.ar    1  UNL1        0.1359
      5 C         142.5493  141.1485  166.6234 C.ar    1  UNL1        0.0285
      6 C         142.7216  142.2094  167.6697 C.ar    1  UNL1        0.0104
      7 C         142.3734  141.7474  165.2595 C.3     1  UNL1        0.1022
      8 N         142.1730  141.0461  163.9487 N.3     1  UNL1       -0.2678
      9 C         142.0991  139.5725  163.6783 C.3     1  UNL1        0.1061
     10 C         142.2072  138.4364  164.6517 C.3     1  UNL1        0.2215
     11 O         142.4161  138.4933  166.1361 O.3     1  UNL1       -0.4743
     12 C         142.0273  141.9359  162.7501 C.3     1  UNL1        0.0613
     13 C         140.7374  142.6620  162.5072 C.3     1  UNL1        0.0375
     14 C         140.5918  143.5518  161.3085 C.3     1  UNL1        0.0950
     15 N         141.7361  143.7156  160.3526 N.pl3   1  UNL1       -0.2784
     16 C         143.0259  142.9896  160.5954 C.3     1  UNL1        0.0950
     17 C         143.1716  142.0998  161.7942 C.3     1  UNL1        0.0375
     18 C         141.5903  144.6055  159.1539 C.ar    1  UNL1        0.2194
     19 N         142.6437  144.8706  158.1194 N.ar    1  UNL1       -0.1117
     20 N         142.0702  145.8155  157.1053 N.ar    1  UNL1       -0.1121
     21 C         140.6623  146.1343  157.5132 C.ar    1  UNL1        0.2131
     22 N         139.7170  147.0416  156.7830 N.pl3   1  UNL1       -0.3277
     23 N         140.3658  145.3865  158.7791 N.ar    1  UNL1       -0.2979
     24 H         140.0055  147.4900  155.9554 H       1  UNL1        0.1451
     25 H         138.8080  147.1887  157.1314 H       1  UNL1        0.1451
     26 H         139.5165  145.4051  159.2768 H       1  UNL1        0.1713
     27 N         143.2573  143.9439  171.1988 N.1     1  UNL1       -0.1908
     28 C         143.0851  142.8830  170.1525 C.1     1  UNL1        0.1004
     29 C         141.8892  139.1836  162.2448 C.3     1  UNL1        0.0461
     30 C         140.5390  139.3493  161.6127 C.ar    1  UNL1       -0.0207
     31 C         139.2982  139.1004  162.4180 C.ar    1  UNL1       -0.0034
     32 C         137.9481  139.2661  161.7859 C.ar    1  UNL1        0.0111
     33 C         137.8387  139.6807  160.3485 C.ar    1  UNL1        0.0577
     34 CL        136.4885  139.8463  159.7164 Cl      1  UNL1       -0.0822
     35 C         139.0795  139.9295  159.5432 C.ar    1  UNL1        0.0111
     36 C         140.4297  139.7638  160.1753 C.ar    1  UNL1       -0.0034
@<TRIPOS>BOND
     1    27    28    3
     2    28     1    1
     3     1     2   ar
     4     2     3   ar
     5     3     4   ar
     6     4     5   ar
     7     5     6   ar
     8     5     7    1
     9     7     8    1
    10     8    12    1
    11    12    13    1
    12    13    14    1
    13    14    15    1
    14    15    18    1
    15    18    19   ar
    16    19    20   ar
    17    20    21   ar
    18    21    22    1
    19    21    23   ar
    20    15    16    1
    21    16    17    1
    22     8     9    1
    23     9    29    1
    24    29    30    1
    25    30    31   ar
    26    31    32   ar
    27    32    33   ar
    28    33    34    1
    29    33    35   ar
    30    35    36   ar
    31     9    10    1
    32    10    11    1
    33     6     1   ar
    34    17    12    1
    35    36    30   ar
    36    11     4    1
    37    23    18   ar
    38    22    24    1
    39    22    25    1
    40    23    26    1
