@<TRIPOS>MOLECULE
*****
 24 27 0 0 0
SMALL
GASTEIGER

@<TRIPOS>ATOM
      1 C         138.1374  138.8146  166.3549 C.3     1  UNL1        0.0420
      2 C         139.3678  139.5914  166.7196 C.3     1  UNL1        0.1909
      3 O         140.3555  139.9740  165.6575 O.3     1  UNL1       -0.3501
      4 C         141.5858  140.7507  166.0222 C.3     1  UNL1        0.1141
      5 C         142.8161  141.5274  166.3869 C.3     1  UNL1        0.0463
      6 C         143.8038  141.9100  165.3248 C.3     1  UNL1        0.0746
      7 N         143.5612  141.5159  163.8980 N.3     1  UNL1       -0.2722
      8 C         142.3309  140.7392  163.5333 C.3     1  UNL1        0.0746
      9 C         141.3432  140.3566  164.5954 C.3     1  UNL1        0.0463
     10 C         141.8284  141.1448  167.4490 C.3     1  UNL1        0.1205
     11 N         140.8407  140.7622  168.5111 N.am    1  UNL1       -0.2768
     12 C         139.6104  139.9855  168.1464 C.2     1  UNL1        0.2528
     13 O         138.6227  139.6029  169.2085 O.2     1  UNL1       -0.2723
     14 C         141.0833  141.1563  169.9379 C.3     1  UNL1        0.0756
     15 C         141.8795  141.0306  171.2029 C.3     1  UNL1        0.0215
     16 C         140.7074  141.9648  171.1442 C.3     1  UNL1        0.0215
     17 C         144.5489  141.8985  162.8359 C.3     1  UNL1        0.0768
     18 C         144.4533  143.2396  162.1708 C.3     1  UNL1        0.0437
     19 C         143.1750  144.0216  162.2398 C.ar    1  UNL1       -0.0208
     20 C         142.1963  143.9606  161.1048 C.ar    1  UNL1       -0.0042
     21 C         140.9182  144.7425  161.1739 C.ar    1  UNL1       -0.0003
     22 C         140.6187  145.5855  162.3779 C.ar    1  UNL1       -0.0000
     23 C         141.5974  145.6464  163.5130 C.ar    1  UNL1       -0.0003
     24 C         142.8756  144.8645  163.4439 C.ar    1  UNL1       -0.0042
@<TRIPOS>BOND
     1     2     1    1
     2     2     3    1
     3     3     4    1
     4     4     5    1
     5     5     6    1
     6     6     7    1
     7     7    17    1
     8    17    18    1
     9    18    19    1
    10    19    20   ar
    11    20    21   ar
    12    21    22   ar
    13    22    23   ar
    14    23    24   ar
    15     7     8    1
    16     8     9    1
    17     4    10    1
    18    10    11    1
    19    11    14    1
    20    14    15    1
    21    15    16    1
    22    11    12   am
    23    12    13    2
    24    12     2    1
    25     9     4    1
    26    16    14    1
    27    24    19   ar
@<TRIPOS>MOLECULE
*****
 24 27 0 0 0
SMALL
GASTEIGER

@<TRIPOS>ATOM
      1 C         144.6923  141.2766  162.0586 C.3     1  UNL1        0.0420
      2 C         143.3743  141.8025  162.5446 C.3     1  UNL1        0.1909
      3 O         142.6747  141.1308  163.6889 O.3     1  UNL1       -0.3501
      4 C         141.3566  141.6567  164.1749 C.3     1  UNL1        0.1141
      5 C         140.0386  142.1826  164.6609 C.3     1  UNL1        0.0463
      6 C         139.3390  141.5109  165.8051 C.3     1  UNL1        0.0746
      7 N         139.9574  140.3133  166.4634 N.3     1  UNL1       -0.2722
      8 C         141.2754  139.7874  165.9774 C.3     1  UNL1        0.0746
      9 C         141.9750  140.4591  164.8331 C.3     1  UNL1        0.0463
     10 C         140.7382  142.8543  163.5167 C.3     1  UNL1        0.1205
     11 N         141.4379  143.5261  162.3724 N.am    1  UNL1       -0.2768
     12 C         142.7559  143.0001  161.8864 C.2     1  UNL1        0.2528
     13 O         143.4555  143.6719  160.7421 O.2     1  UNL1       -0.2723
     14 C         140.8195  144.7237  161.7142 C.3     1  UNL1        0.0756
     15 C         140.0470  146.0057  161.8123 C.3     1  UNL1        0.0215
     16 C         140.5209  145.5160  160.4760 C.3     1  UNL1        0.0215
     17 C         139.2577  139.6416  167.6077 C.3     1  UNL1        0.0768
     18 C         139.3421  140.2270  168.9861 C.3     1  UNL1        0.0437
     19 C         140.5123  141.0850  169.3662 C.ar    1  UNL1       -0.0208
     20 C         141.8604  140.4629  169.5797 C.ar    1  UNL1       -0.0042
     21 C         143.0306  141.3209  169.9598 C.ar    1  UNL1       -0.0003
     22 C         142.8526  142.8010  170.1264 C.ar    1  UNL1       -0.0000
     23 C         141.5046  143.4230  169.9129 C.ar    1  UNL1       -0.0003
     24 C         140.3344  142.5651  169.5328 C.ar    1  UNL1       -0.0042
@<TRIPOS>BOND
     1     2     1    1
     2     2     3    1
     3     3     4    1
     4     4     5    1
     5     5     6    1
     6     6     7    1
     7     7    17    1
     8    17    18    1
     9    18    19    1
    10    19    20   ar
    11    20    21   ar
    12    21    22   ar
    13    22    23   ar
    14    23    24   ar
    15     7     8    1
    16     8     9    1
    17     4    10    1
    18    10    11    1
    19    11    14    1
    20    14    15    1
    21    15    16    1
    22    11    12   am
    23    12    13    2
    24    12     2    1
    25     9     4    1
    26    16    14    1
    27    24    19   ar
@<TRIPOS>MOLECULE
*****
 24 27 0 0 0
SMALL
GASTEIGER

@<TRIPOS>ATOM
      1 C         138.0772  139.8799  170.3687 C.3     1  UNL1        0.0420
      2 C         139.1998  140.3332  169.4830 C.3     1  UNL1        0.1909
      3 O         139.1570  140.0459  168.0115 O.3     1  UNL1       -0.3501
      4 C         140.2797  140.4992  167.1258 C.3     1  UNL1        0.1141
      5 C         141.4023  140.9524  166.2402 C.3     1  UNL1        0.0463
      6 C         141.3595  140.6651  164.7687 C.3     1  UNL1        0.0746
      7 N         140.1941  139.9245  164.1827 N.3     1  UNL1       -0.2722
      8 C         139.0715  139.4712  165.0682 C.3     1  UNL1        0.0746
      9 C         139.1143  139.7586  166.5398 C.3     1  UNL1        0.0463
     10 C         141.4450  141.2397  167.7118 C.3     1  UNL1        0.1205
     11 N         141.4878  141.5270  169.1835 N.am    1  UNL1       -0.2768
     12 C         140.3652  141.0738  170.0690 C.2     1  UNL1        0.2528
     13 O         140.4079  141.3611  171.5407 O.2     1  UNL1       -0.2723
     14 C         142.6532  142.2676  169.7695 C.3     1  UNL1        0.0756
     15 C         143.1917  143.3264  170.6854 C.3     1  UNL1        0.0215
     16 C         144.1330  142.4916  169.8686 C.3     1  UNL1        0.0215
     17 C         140.1513  139.6372  162.7110 C.3     1  UNL1        0.0768
     18 C         139.5530  140.6389  161.7684 C.3     1  UNL1        0.0437
     19 C         139.2993  142.0438  162.2288 C.ar    1  UNL1       -0.0208
     20 C         140.3918  143.0684  162.1479 C.ar    1  UNL1       -0.0042
     21 C         140.1380  144.4733  162.6083 C.ar    1  UNL1       -0.0003
     22 C         138.7918  144.8534  163.1497 C.ar    1  UNL1       -0.0000
     23 C         137.6993  143.8288  163.2307 C.ar    1  UNL1       -0.0003
     24 C         137.9531  142.4240  162.7702 C.ar    1  UNL1       -0.0042
@<TRIPOS>BOND
     1     2     1    1
     2     2     3    1
     3     3     4    1
     4     4     5    1
     5     5     6    1
     6     6     7    1
     7     7    17    1
     8    17    18    1
     9    18    19    1
    10    19    20   ar
    11    20    21   ar
    12    21    22   ar
    13    22    23   ar
    14    23    24   ar
    15     7     8    1
    16     8     9    1
    17     4    10    1
    18    10    11    1
    19    11    14    1
    20    14    15    1
    21    15    16    1
    22    11    12   am
    23    12    13    2
    24    12     2    1
    25     9     4    1
    26    16    14    1
    27    24    19   ar
@<TRIPOS>MOLECULE
*****
 24 27 0 0 0
SMALL
GASTEIGER

@<TRIPOS>ATOM
      1 C         137.3531  140.0332  161.5890 C.3     1  UNL1        0.0420
      2 C         138.4378  140.8694  162.2007 C.3     1  UNL1        0.1909
      3 O         139.3138  140.2937  163.2736 O.3     1  UNL1       -0.3501
      4 C         140.3985  141.1299  163.8853 C.3     1  UNL1        0.1141
      5 C         141.4832  141.9662  164.4969 C.3     1  UNL1        0.0463
      6 C         142.3592  141.3904  165.5698 C.3     1  UNL1        0.0746
      7 N         142.1504  139.9784  166.0311 N.3     1  UNL1       -0.2722
      8 C         141.0658  139.1422  165.4195 C.3     1  UNL1        0.0746
      9 C         140.1898  139.7180  164.3466 C.3     1  UNL1        0.0463
     10 C         140.6073  142.5419  163.4240 C.3     1  UNL1        0.1205
     11 N         139.7312  143.1176  162.3511 N.am    1  UNL1       -0.2768
     12 C         138.6466  142.2814  161.7394 C.2     1  UNL1        0.2528
     13 O         137.7705  142.8572  160.6664 O.2     1  UNL1       -0.2723
     14 C         139.9400  144.5296  161.8898 C.3     1  UNL1        0.0756
     15 C         140.5748  145.5074  160.9460 C.3     1  UNL1        0.0215
     16 C         139.6667  145.9973  162.0347 C.3     1  UNL1        0.0215
     17 C         143.0265  139.4027  167.1041 C.3     1  UNL1        0.0768
     18 C         142.5546  139.3839  168.5278 C.3     1  UNL1        0.0437
     19 C         141.7154  140.5101  169.0548 C.ar    1  UNL1       -0.0208
     20 C         142.3051  141.8819  169.1968 C.ar    1  UNL1       -0.0042
     21 C         141.4660  143.0080  169.7237 C.ar    1  UNL1       -0.0003
     22 C         140.0372  142.7622  170.1087 C.ar    1  UNL1       -0.0000
     23 C         139.4475  141.3904  169.9667 C.ar    1  UNL1       -0.0003
     24 C         140.2867  140.2643  169.4397 C.ar    1  UNL1       -0.0042
@<TRIPOS>BOND
     1     2     1    1
     2     2     3    1
     3     3     4    1
     4     4     5    1
     5     5     6    1
     6     6     7    1
     7     7    17    1
     8    17    18    1
     9    18    19    1
    10    19    20   ar
    11    20    21   ar
    12    21    22   ar
    13    22    23   ar
    14    23    24   ar
    15     7     8    1
    16     8     9    1
    17     4    10    1
    18    10    11    1
    19    11    14    1
    20    14    15    1
    21    15    16    1
    22    11    12   am
    23    12    13    2
    24    12     2    1
    25     9     4    1
    26    16    14    1
    27    24    19   ar
@<TRIPOS>MOLECULE
*****
 24 27 0 0 0
SMALL
GASTEIGER

@<TRIPOS>ATOM
      1 C         143.9397  138.3254  166.1853 C.3     1  UNL1        0.0420
      2 C         142.6141  139.0066  166.3551 C.3     1  UNL1        0.1909
      3 O         141.7738  139.3225  165.1535 O.3     1  UNL1       -0.3501
      4 C         140.4482  140.0038  165.3233 C.3     1  UNL1        0.1141
      5 C         139.1227  140.6850  165.4932 C.3     1  UNL1        0.0463
      6 C         138.2824  141.0009  164.2915 C.3     1  UNL1        0.0746
      7 N         138.7676  140.6355  162.9199 N.3     1  UNL1       -0.2722
      8 C         140.0931  139.9543  162.7501 C.3     1  UNL1        0.0746
      9 C         140.9334  139.6384  163.9517 C.3     1  UNL1        0.0463
     10 C         139.9630  140.3691  166.6948 C.3     1  UNL1        0.1205
     11 N         140.8033  140.0531  167.8965 N.am    1  UNL1       -0.2768
     12 C         142.1289  139.3719  167.7267 C.2     1  UNL1        0.2528
     13 O         142.9693  139.0560  168.9284 O.2     1  UNL1       -0.2723
     14 C         140.3181  140.4184  169.2681 C.3     1  UNL1        0.0756
     15 C         140.2178  140.1160  170.7338 C.3     1  UNL1        0.0215
     16 C         139.5780  141.3536  170.1778 C.3     1  UNL1        0.0215
     17 C         137.9272  140.9515  161.7182 C.3     1  UNL1        0.0768
     18 C         138.2033  142.1870  160.9138 C.3     1  UNL1        0.0437
     19 C         139.0894  143.2619  161.4703 C.ar    1  UNL1       -0.0208
     20 C         140.4916  143.4164  160.9607 C.ar    1  UNL1       -0.0042
     21 C         141.3776  144.4912  161.5171 C.ar    1  UNL1       -0.0003
     22 C         140.8614  145.4115  162.5832 C.ar    1  UNL1       -0.0000
     23 C         139.4591  145.2570  163.0928 C.ar    1  UNL1       -0.0003
     24 C         138.5731  144.1822  162.5364 C.ar    1  UNL1       -0.0042
@<TRIPOS>BOND
     1     2     1    1
     2     2     3    1
     3     3     4    1
     4     4     5    1
     5     5     6    1
     6     6     7    1
     7     7    17    1
     8    17    18    1
     9    18    19    1
    10    19    20   ar
    11    20    21   ar
    12    21    22   ar
    13    22    23   ar
    14    23    24   ar
    15     7     8    1
    16     8     9    1
    17     4    10    1
    18    10    11    1
    19    11    14    1
    20    14    15    1
    21    15    16    1
    22    11    12   am
    23    12    13    2
    24    12     2    1
    25     9     4    1
    26    16    14    1
    27    24    19   ar
@<TRIPOS>MOLECULE
*****
 24 27 0 0 0
SMALL
GASTEIGER

@<TRIPOS>ATOM
      1 C         139.5862  146.2800  161.5883 C.3     1  UNL1        0.0420
      2 C         140.3152  144.9902  161.8230 C.3     1  UNL1        0.1909
      3 O         139.9359  144.1141  162.9799 O.3     1  UNL1       -0.3501
      4 C         140.6649  142.8242  163.2146 C.3     1  UNL1        0.1141
      5 C         141.3938  141.5345  163.4492 C.3     1  UNL1        0.0463
      6 C         141.0145  140.6584  164.6061 C.3     1  UNL1        0.0746
      7 N         139.9062  141.0720  165.5284 N.3     1  UNL1       -0.2722
      8 C         139.1772  142.3617  165.2937 C.3     1  UNL1        0.0746
      9 C         139.5565  143.2379  164.1368 C.3     1  UNL1        0.0463
     10 C         141.7732  142.4106  162.2923 C.3     1  UNL1        0.1205
     11 N         142.1525  143.2868  161.1354 N.am    1  UNL1       -0.2768
     12 C         141.4235  144.5765  160.9007 C.2     1  UNL1        0.2528
     13 O         141.8029  145.4528  159.7438 O.2     1  UNL1       -0.2723
     14 C         143.2608  142.8732  160.2131 C.3     1  UNL1        0.0756
     15 C         144.6674  142.3956  160.0049 C.3     1  UNL1        0.0215
     16 C         143.7739  142.6344  158.8240 C.3     1  UNL1        0.0215
     17 C         139.5269  140.1958  166.6853 C.3     1  UNL1        0.0768
     18 C         140.5370  139.8767  167.7472 C.3     1  UNL1        0.0437
     19 C         141.1745  140.9840  168.5331 C.ar    1  UNL1       -0.0208
     20 C         140.3197  142.0340  169.1787 C.ar    1  UNL1       -0.0042
     21 C         140.9572  143.1412  169.9644 C.ar    1  UNL1       -0.0003
     22 C         142.4495  143.1986  170.1045 C.ar    1  UNL1       -0.0000
     23 C         143.3044  142.1486  169.4589 C.ar    1  UNL1       -0.0003
     24 C         142.6669  141.0414  168.6732 C.ar    1  UNL1       -0.0042
@<TRIPOS>BOND
     1     2     1    1
     2     2     3    1
     3     3     4    1
     4     4     5    1
     5     5     6    1
     6     6     7    1
     7     7    17    1
     8    17    18    1
     9    18    19    1
    10    19    20   ar
    11    20    21   ar
    12    21    22   ar
    13    22    23   ar
    14    23    24   ar
    15     7     8    1
    16     8     9    1
    17     4    10    1
    18    10    11    1
    19    11    14    1
    20    14    15    1
    21    15    16    1
    22    11    12   am
    23    12    13    2
    24    12     2    1
    25     9     4    1
    26    16    14    1
    27    24    19   ar
@<TRIPOS>MOLECULE
*****
 24 27 0 0 0
SMALL
GASTEIGER

@<TRIPOS>ATOM
      1 C         144.1454  142.8967  157.7270 C.3     1  UNL1        0.0420
      2 C         142.9632  143.7319  158.1205 C.3     1  UNL1        0.1909
      3 O         142.5917  143.8716  159.5670 O.3     1  UNL1       -0.3501
      4 C         141.4094  144.7068  159.9605 C.3     1  UNL1        0.1141
      5 C         140.2272  145.5419  160.3540 C.3     1  UNL1        0.0463
      6 C         139.8557  145.6816  161.8005 C.3     1  UNL1        0.0746
      7 N         140.6664  144.9860  162.8536 N.3     1  UNL1       -0.2722
      8 C         141.8486  144.1509  162.4601 C.3     1  UNL1        0.0746
      9 C         142.2201  144.0112  161.0136 C.3     1  UNL1        0.0463
     10 C         140.5987  145.4023  158.9075 C.3     1  UNL1        0.1205
     11 N         140.9702  145.2626  157.4609 N.am    1  UNL1       -0.2768
     12 C         142.1524  144.4274  157.0675 C.2     1  UNL1        0.2528
     13 O         142.5240  144.2877  155.6209 O.2     1  UNL1       -0.2723
     14 C         140.1595  145.9581  156.4078 C.3     1  UNL1        0.0756
     15 C         139.9496  147.1263  155.4906 C.3     1  UNL1        0.0215
     16 C         138.9652  145.9946  155.5010 C.3     1  UNL1        0.0215
     17 C         140.2949  145.1257  164.3001 C.3     1  UNL1        0.0768
     18 C         139.0041  144.5496  164.8020 C.3     1  UNL1        0.0437
     19 C         138.6392  143.1313  164.4771 C.ar    1  UNL1       -0.0208
     20 C         139.1850  142.0075  165.3072 C.ar    1  UNL1       -0.0042
     21 C         138.8202  140.5893  164.9824 C.ar    1  UNL1       -0.0003
     22 C         137.9095  140.2949  163.8273 C.ar    1  UNL1       -0.0000
     23 C         137.3638  141.4187  162.9972 C.ar    1  UNL1       -0.0003
     24 C         137.7286  142.8369  163.3221 C.ar    1  UNL1       -0.0042
@<TRIPOS>BOND
     1     2     1    1
     2     2     3    1
     3     3     4    1
     4     4     5    1
     5     5     6    1
     6     6     7    1
     7     7    17    1
     8    17    18    1
     9    18    19    1
    10    19    20   ar
    11    20    21   ar
    12    21    22   ar
    13    22    23   ar
    14    23    24   ar
    15     7     8    1
    16     8     9    1
    17     4    10    1
    18    10    11    1
    19    11    14    1
    20    14    15    1
    21    15    16    1
    22    11    12   am
    23    12    13    2
    24    12     2    1
    25     9     4    1
    26    16    14    1
    27    24    19   ar
@<TRIPOS>MOLECULE
*****
 24 27 0 0 0
SMALL
GASTEIGER

@<TRIPOS>ATOM
      1 C         139.2641  139.9857  157.4609 C.3     1  UNL1        0.0420
      2 C         140.4387  139.2211  157.9955 C.3     1  UNL1        0.1909
      3 O         140.8911  139.4335  159.4098 O.3     1  UNL1       -0.3501
      4 C         142.0657  138.6689  159.9445 C.3     1  UNL1        0.1141
      5 C         143.2402  137.9044  160.4790 C.3     1  UNL1        0.0463
      6 C         143.6925  138.1168  161.8933 C.3     1  UNL1        0.0746
      7 N         142.9703  139.0937  162.7730 N.3     1  UNL1       -0.2722
      8 C         141.7957  139.8583  162.2385 C.3     1  UNL1        0.0746
      9 C         141.3434  139.6459  160.8242 C.3     1  UNL1        0.0463
     10 C         142.7879  137.6920  159.0647 C.3     1  UNL1        0.1205
     11 N         142.3355  137.4796  157.6504 N.am    1  UNL1       -0.2768
     12 C         141.1610  138.2442  157.1158 C.2     1  UNL1        0.2528
     13 O         140.7086  138.0318  155.7014 O.2     1  UNL1       -0.2723
     14 C         143.0578  136.5026  156.7707 C.3     1  UNL1        0.0756
     15 C         143.3105  135.0910  156.3309 C.3     1  UNL1        0.0215
     16 C         144.0559  136.2221  155.6867 C.3     1  UNL1        0.0215
     17 C         143.4227  139.3061  164.1874 C.3     1  UNL1        0.0768
     18 C         142.8029  138.5138  165.3000 C.3     1  UNL1        0.0437
     19 C         141.3202  138.5653  165.5219 C.ar    1  UNL1       -0.0208
     20 C         140.7332  139.6067  166.4278 C.ar    1  UNL1       -0.0042
     21 C         139.2506  139.6582  166.6497 C.ar    1  UNL1       -0.0003
     22 C         138.3551  138.6682  165.9657 C.ar    1  UNL1       -0.0000
     23 C         138.9421  137.6267  165.0598 C.ar    1  UNL1       -0.0003
     24 C         140.4247  137.5752  164.8379 C.ar    1  UNL1       -0.0042
@<TRIPOS>BOND
     1     2     1    1
     2     2     3    1
     3     3     4    1
     4     4     5    1
     5     5     6    1
     6     6     7    1
     7     7    17    1
     8    17    18    1
     9    18    19    1
    10    19    20   ar
    11    20    21   ar
    12    21    22   ar
    13    22    23   ar
    14    23    24   ar
    15     7     8    1
    16     8     9    1
    17     4    10    1
    18    10    11    1
    19    11    14    1
    20    14    15    1
    21    15    16    1
    22    11    12   am
    23    12    13    2
    24    12     2    1
    25     9     4    1
    26    16    14    1
    27    24    19   ar
@<TRIPOS>MOLECULE
*****
 24 27 0 0 0
SMALL
GASTEIGER

@<TRIPOS>ATOM
      1 C         139.7035  146.3406  161.6725 C.3     1  UNL1        0.0420
      2 C         140.6743  145.1973  161.6931 C.3     1  UNL1        0.1909
      3 O         140.9625  144.4812  162.9792 O.3     1  UNL1       -0.3501
      4 C         141.9333  143.3378  162.9998 C.3     1  UNL1        0.1141
      5 C         142.9040  142.1945  163.0204 C.3     1  UNL1        0.0463
      6 C         143.1923  141.4784  164.3065 C.3     1  UNL1        0.0746
      7 N         142.5097  141.9057  165.5720 N.3     1  UNL1       -0.2722
      8 C         141.5390  143.0490  165.5515 C.3     1  UNL1        0.0746
      9 C         141.2508  143.7650  164.2654 C.3     1  UNL1        0.0463
     10 C         142.6158  142.9106  161.7343 C.3     1  UNL1        0.1205
     11 N         142.3275  143.6267  160.4481 N.am    1  UNL1       -0.2768
     12 C         141.3568  144.7700  160.4276 C.2     1  UNL1        0.2528
     13 O         141.0685  145.4862  159.1414 O.2     1  UNL1       -0.2723
     14 C         143.0101  143.1995  159.1825 C.3     1  UNL1        0.0756
     15 C         142.9381  142.8065  157.7367 C.3     1  UNL1        0.0215
     16 C         144.2642  142.8525  158.4364 C.3     1  UNL1        0.0215
     17 C         142.7980  141.1895  166.8582 C.3     1  UNL1        0.0768
     18 C         142.3577  139.7671  167.0396 C.3     1  UNL1        0.0437
     19 C         141.1218  139.2707  166.3495 C.ar    1  UNL1       -0.0208
     20 C         139.7690  139.7100  166.8260 C.ar    1  UNL1       -0.0042
     21 C         138.5332  139.2136  166.1360 C.ar    1  UNL1       -0.0003
     22 C         138.6501  138.2780  164.9694 C.ar    1  UNL1       -0.0000
     23 C         140.0028  137.8387  164.4929 C.ar    1  UNL1       -0.0003
     24 C         141.2386  138.3351  165.1830 C.ar    1  UNL1       -0.0042
@<TRIPOS>BOND
     1     2     1    1
     2     2     3    1
     3     3     4    1
     4     4     5    1
     5     5     6    1
     6     6     7    1
     7     7    17    1
     8    17    18    1
     9    18    19    1
    10    19    20   ar
    11    20    21   ar
    12    21    22   ar
    13    22    23   ar
    14    23    24   ar
    15     7     8    1
    16     8     9    1
    17     4    10    1
    18    10    11    1
    19    11    14    1
    20    14    15    1
    21    15    16    1
    22    11    12   am
    23    12    13    2
    24    12     2    1
    25     9     4    1
    26    16    14    1
    27    24    19   ar
