@<TRIPOS>MOLECULE
*****
 30 33 0 0 0
SMALL
GASTEIGER

@<TRIPOS>ATOM
      1 C         139.7851  139.9232  166.9632 C.3     1  UNL1        0.0851
      2 C         138.4669  139.3938  167.4447 C.3     1  UNL1        0.0096
      3 C         137.8257  138.2310  166.7471 C.3     1  UNL1        0.0005
      4 C         138.5028  137.5976  165.5680 C.3     1  UNL1        0.0005
      5 C         139.8211  138.1270  165.0865 C.3     1  UNL1        0.0096
      6 C         140.4622  139.2898  165.7841 C.3     1  UNL1        0.0853
      7 C         141.7806  139.8193  165.3026 C.2     1  UNL1        0.2257
      8 O         143.0410  139.4762  166.0399 O.2     1  UNL1       -0.2749
      9 N         141.8384  140.6918  164.0839 N.am    1  UNL1       -0.2760
     10 C         140.5779  141.0348  163.3466 C.3     1  UNL1        0.1148
     11 C         140.6357  141.9073  162.1279 C.3     1  UNL1        0.1123
     12 N         141.9540  142.4368  161.6464 N.pl3   1  UNL1       -0.3041
     13 C         143.2144  142.0938  162.3836 C.3     1  UNL1        0.1123
     14 C         143.1566  141.2212  163.6024 C.3     1  UNL1        0.1148
     15 C         142.0118  143.3093  160.4276 C.ar    1  UNL1        0.0481
     16 C         142.9530  142.9736  159.3088 C.ar    1  UNL1        0.0168
     17 C         143.0108  143.8461  158.0901 C.ar    1  UNL1        0.0309
     18 C         142.1274  145.0544  157.9901 C.ar    1  UNL1        0.1402
     19 F         142.1852  145.9269  156.7713 F       1  UNL1       -0.2042
     20 C         141.1863  145.3901  159.1088 C.ar    1  UNL1        0.0309
     21 C         141.1285  144.5175  160.3276 C.ar    1  UNL1        0.0168
     22 N         141.0286  140.9045  169.0226 N.am    1  UNL1       -0.2959
     23 C         140.4264  141.0861  167.6609 C.2     1  UNL1        0.2231
     24 O         140.4653  142.4305  166.9967 O.2     1  UNL1       -0.2751
     25 H         141.0030  140.0221  169.4585 H       1  UNL1        0.1502
     26 C         141.6698  142.0674  169.7202 C.3     1  UNL1        0.1364
     27 C         142.7244  143.0357  170.1676 C.3     1  UNL1        0.0353
     28 C         143.0829  141.9111  169.2419 C.3     1  UNL1        0.0353
     29 N         139.2888  143.1873  171.1613 N.1     1  UNL1       -0.1943
     30 C         140.4794  142.6274  170.4408 C.1     1  UNL1        0.0896
@<TRIPOS>BOND
     1    29    30    3
     2    30    26    1
     3    26    22    1
     4    22    23   am
     5    23    24    2
     6     1    23    1
     7     1     2    1
     8     2     3    1
     9     3     4    1
    10     4     5    1
    11     5     6    1
    12     6     7    1
    13     7     8    2
    14     7     9   am
    15     9    10    1
    16    10    11    1
    17    11    12    1
    18    12    15    1
    19    15    16   ar
    20    16    17   ar
    21    17    18   ar
    22    18    19    1
    23    18    20   ar
    24    20    21   ar
    25    12    13    1
    26    13    14    1
    27    26    27    1
    28    27    28    1
    29    28    26    1
    30     6     1    1
    31    14     9    1
    32    21    15   ar
    33    22    25    1
@<TRIPOS>MOLECULE
*****
 30 33 0 0 0
SMALL
GASTEIGER

@<TRIPOS>ATOM
      1 C         140.8737  141.4810  167.7971 C.3     1  UNL1        0.0851
      2 C         140.2798  142.5588  168.6547 C.3     1  UNL1        0.0096
      3 C         141.1373  143.2833  169.6496 C.3     1  UNL1        0.0005
      4 C         142.5886  142.9300  169.7868 C.3     1  UNL1        0.0005
      5 C         143.1825  141.8522  168.9292 C.3     1  UNL1        0.0096
      6 C         142.3251  141.1277  167.9343 C.3     1  UNL1        0.0853
      7 C         142.9190  140.0498  167.0766 C.2     1  UNL1        0.2257
      8 O         143.2645  138.7191  167.6765 O.2     1  UNL1       -0.2749
      9 N         143.1673  140.3027  165.6191 N.am    1  UNL1       -0.2760
     10 C         142.8217  141.6335  165.0193 C.3     1  UNL1        0.1148
     11 C         143.0700  141.8864  163.5618 C.3     1  UNL1        0.1123
     12 N         143.6639  140.8085  162.7041 N.pl3   1  UNL1       -0.3041
     13 C         144.0095  139.4778  163.3039 C.3     1  UNL1        0.1123
     14 C         143.7612  139.2249  164.7614 C.3     1  UNL1        0.1148
     15 C         143.9123  141.0614  161.2465 C.ar    1  UNL1        0.0481
     16 C         144.4498  142.3875  160.7963 C.ar    1  UNL1        0.0168
     17 C         144.6981  142.6404  159.3388 C.ar    1  UNL1        0.0309
     18 C         144.4089  141.5672  158.3315 C.ar    1  UNL1        0.1402
     19 F         144.6572  141.8201  156.8740 F       1  UNL1       -0.2042
     20 C         143.8715  140.2412  158.7817 C.ar    1  UNL1        0.0309
     21 C         143.6231  139.9883  160.2392 C.ar    1  UNL1        0.0168
     22 N         140.0361  139.2576  166.7458 N.am    1  UNL1       -0.2959
     23 C         140.0163  140.7564  166.8021 C.2     1  UNL1        0.2231
     24 O         139.1392  141.5307  165.8634 O.2     1  UNL1       -0.2751
     25 H         140.6118  138.7494  167.3619 H       1  UNL1        0.1502
     26 C         139.1786  138.5330  165.7509 C.3     1  UNL1        0.1364
     27 C         138.7280  137.9293  164.4538 C.3     1  UNL1        0.0353
     28 C         140.0521  138.6294  164.5353 C.3     1  UNL1        0.0353
     29 N         136.8363  137.8370  167.4913 N.1     1  UNL1       -0.1943
     30 C         138.0074  138.1851  166.6211 C.1     1  UNL1        0.0896
@<TRIPOS>BOND
     1    29    30    3
     2    30    26    1
     3    26    22    1
     4    22    23   am
     5    23    24    2
     6     1    23    1
     7     1     2    1
     8     2     3    1
     9     3     4    1
    10     4     5    1
    11     5     6    1
    12     6     7    1
    13     7     8    2
    14     7     9   am
    15     9    10    1
    16    10    11    1
    17    11    12    1
    18    12    15    1
    19    15    16   ar
    20    16    17   ar
    21    17    18   ar
    22    18    19    1
    23    18    20   ar
    24    20    21   ar
    25    12    13    1
    26    13    14    1
    27    26    27    1
    28    27    28    1
    29    28    26    1
    30     6     1    1
    31    14     9    1
    32    21    15   ar
    33    22    25    1
@<TRIPOS>MOLECULE
*****
 30 33 0 0 0
SMALL
GASTEIGER

@<TRIPOS>ATOM
      1 C         140.0533  142.3402  165.2508 C.3     1  UNL1        0.0851
      2 C         140.0975  143.7951  165.6131 C.3     1  UNL1        0.0096
      3 C         138.9107  144.6717  165.3428 C.3     1  UNL1        0.0005
      4 C         137.6797  144.0933  164.7102 C.3     1  UNL1        0.0005
      5 C         137.6355  142.6384  164.3479 C.3     1  UNL1        0.0096
      6 C         138.8223  141.7619  164.6182 C.3     1  UNL1        0.0853
      7 C         138.7782  140.3069  164.2560 C.2     1  UNL1        0.2257
      8 O         138.2381  139.3064  165.2344 O.2     1  UNL1       -0.2749
      9 N         139.2741  139.8525  162.9152 N.am    1  UNL1       -0.2760
     10 C         139.8142  140.8530  161.9368 C.3     1  UNL1        0.1148
     11 C         140.3101  140.3986  160.5961 C.3     1  UNL1        0.1123
     12 N         140.2660  138.9436  160.2338 N.pl3   1  UNL1       -0.3041
     13 C         139.7259  137.9432  161.2122 C.3     1  UNL1        0.1123
     14 C         139.2300  138.3976  162.5529 C.3     1  UNL1        0.1148
     15 C         140.7619  138.4892  158.8931 C.ar    1  UNL1        0.0481
     16 C         139.7966  138.3025  157.7602 C.ar    1  UNL1        0.0168
     17 C         140.2925  137.8481  156.4195 C.ar    1  UNL1        0.0309
     18 C         141.7538  137.5804  156.2116 C.ar    1  UNL1        0.1402
     19 F         142.2497  137.1259  154.8709 F       1  UNL1       -0.2042
     20 C         142.7190  137.7671  157.3445 C.ar    1  UNL1        0.0309
     21 C         142.2231  138.2215  158.6852 C.ar    1  UNL1        0.0168
     22 N         141.0759  140.2037  166.3184 N.am    1  UNL1       -0.2959
     23 C         141.2402  141.4636  165.5211 C.2     1  UNL1        0.2231
     24 O         142.5912  141.8470  164.9941 O.2     1  UNL1       -0.2751
     25 H         140.1892  139.9522  166.6643 H       1  UNL1        0.1502
     26 C         142.2628  139.3271  166.5887 C.3     1  UNL1        0.1364
     27 C         143.3223  138.2858  166.3815 C.3     1  UNL1        0.0353
     28 C         142.3084  138.5482  165.3076 C.3     1  UNL1        0.0353
     29 N         142.9957  140.2762  169.3387 N.1     1  UNL1       -0.1943
     30 C         142.6292  139.8017  167.9636 C.1     1  UNL1        0.0896
@<TRIPOS>BOND
     1    29    30    3
     2    30    26    1
     3    26    22    1
     4    22    23   am
     5    23    24    2
     6     1    23    1
     7     1     2    1
     8     2     3    1
     9     3     4    1
    10     4     5    1
    11     5     6    1
    12     6     7    1
    13     7     8    2
    14     7     9   am
    15     9    10    1
    16    10    11    1
    17    11    12    1
    18    12    15    1
    19    15    16   ar
    20    16    17   ar
    21    17    18   ar
    22    18    19    1
    23    18    20   ar
    24    20    21   ar
    25    12    13    1
    26    13    14    1
    27    26    27    1
    28    27    28    1
    29    28    26    1
    30     6     1    1
    31    14     9    1
    32    21    15   ar
    33    22    25    1
@<TRIPOS>MOLECULE
*****
 30 33 0 0 0
SMALL
GASTEIGER

@<TRIPOS>ATOM
      1 C         139.4500  141.4707  165.5433 C.3     1  UNL1        0.0851
      2 C         139.9233  141.1432  166.9284 C.3     1  UNL1        0.0096
      3 C         139.4268  139.9071  167.6180 C.3     1  UNL1        0.0005
      4 C         138.4569  138.9985  166.9224 C.3     1  UNL1        0.0005
      5 C         137.9836  139.3260  165.5373 C.3     1  UNL1        0.0096
      6 C         138.4801  140.5621  164.8477 C.3     1  UNL1        0.0853
      7 C         138.0067  140.8896  163.4625 C.2     1  UNL1        0.2257
      8 O         136.8708  141.8492  163.2654 O.2     1  UNL1       -0.2749
      9 N         138.6694  140.2576  162.2744 N.am    1  UNL1       -0.2760
     10 C         139.8054  139.2981  162.4716 C.3     1  UNL1        0.1148
     11 C         140.4680  138.6661  161.2836 C.3     1  UNL1        0.1123
     12 N         139.9947  138.9936  159.8984 N.pl3   1  UNL1       -0.3041
     13 C         138.8587  139.9531  159.7013 C.3     1  UNL1        0.1123
     14 C         138.1961  140.5851  160.8893 C.3     1  UNL1        0.1148
     15 C         140.6573  138.3616  158.7103 C.ar    1  UNL1        0.0481
     16 C         139.8354  137.9442  157.5269 C.ar    1  UNL1        0.0168
     17 C         140.4980  137.3122  156.3389 C.ar    1  UNL1        0.0309
     18 C         141.9827  137.0976  156.3342 C.ar    1  UNL1        0.1402
     19 F         142.6453  136.4656  155.1462 F       1  UNL1       -0.2042
     20 C         142.8045  137.5150  157.5175 C.ar    1  UNL1        0.0309
     21 C         142.1419  138.1470  158.7056 C.ar    1  UNL1        0.0168
     22 N         140.9883  142.5994  163.7798 N.am    1  UNL1       -0.2959
     23 C         139.9465  142.7068  164.8536 C.2     1  UNL1        0.2231
     24 O         139.4011  144.0503  165.2378 O.2     1  UNL1       -0.2751
     25 H         141.3462  141.7176  163.5277 H       1  UNL1        0.1502
     26 C         141.4848  143.8355  163.0902 C.3     1  UNL1        0.1364
     27 C         142.3372  145.0298  162.7785 C.3     1  UNL1        0.0353
     28 C         142.6822  144.1442  163.9392 C.3     1  UNL1        0.0353
     29 N         139.4347  144.0765  160.9132 N.1     1  UNL1       -0.1943
     30 C         140.4597  143.9560  162.0018 C.1     1  UNL1        0.0896
@<TRIPOS>BOND
     1    29    30    3
     2    30    26    1
     3    26    22    1
     4    22    23   am
     5    23    24    2
     6     1    23    1
     7     1     2    1
     8     2     3    1
     9     3     4    1
    10     4     5    1
    11     5     6    1
    12     6     7    1
    13     7     8    2
    14     7     9   am
    15     9    10    1
    16    10    11    1
    17    11    12    1
    18    12    15    1
    19    15    16   ar
    20    16    17   ar
    21    17    18   ar
    22    18    19    1
    23    18    20   ar
    24    20    21   ar
    25    12    13    1
    26    13    14    1
    27    26    27    1
    28    27    28    1
    29    28    26    1
    30     6     1    1
    31    14     9    1
    32    21    15   ar
    33    22    25    1
@<TRIPOS>MOLECULE
*****
 30 33 0 0 0
SMALL
GASTEIGER

@<TRIPOS>ATOM
      1 C         140.8713  140.6835  165.0448 C.3     1  UNL1        0.0851
      2 C         140.7099  139.2380  165.4114 C.3     1  UNL1        0.0096
      3 C         139.3378  138.6550  165.5770 C.3     1  UNL1        0.0005
      4 C         138.1271  139.5176  165.3761 C.3     1  UNL1        0.0005
      5 C         138.2886  140.9631  165.0095 C.3     1  UNL1        0.0096
      6 C         139.6607  141.5460  164.8438 C.3     1  UNL1        0.0853
      7 C         139.8222  142.9916  164.4772 C.2     1  UNL1        0.2257
      8 O         139.8034  144.0432  165.5467 O.2     1  UNL1       -0.2749
      9 N         140.0025  143.3855  163.0411 N.am    1  UNL1       -0.2760
     10 C         140.0214  142.3338  161.9717 C.3     1  UNL1        0.1148
     11 C         140.2017  142.7277  160.5356 C.3     1  UNL1        0.1123
     12 N         140.3632  144.1732  160.1690 N.pl3   1  UNL1       -0.3041
     13 C         140.3444  145.2248  161.2384 C.3     1  UNL1        0.1123
     14 C         140.1640  144.8310  162.6745 C.3     1  UNL1        0.1148
     15 C         140.5436  144.5671  158.7329 C.ar    1  UNL1        0.0481
     16 C         141.6180  145.5421  158.3519 C.ar    1  UNL1        0.0168
     17 C         141.7984  145.9360  156.9158 C.ar    1  UNL1        0.0309
     18 C         140.9043  145.3549  155.8607 C.ar    1  UNL1        0.1402
     19 F         141.0846  145.7488  154.4246 F       1  UNL1       -0.2042
     20 C         139.8299  144.3800  156.2418 C.ar    1  UNL1        0.0309
     21 C         139.6496  143.9861  157.6779 C.ar    1  UNL1        0.0168
     22 N         143.0130  141.0258  163.6143 N.am    1  UNL1       -0.2959
     23 C         142.2435  141.2665  164.8791 C.2     1  UNL1        0.2231
     24 O         142.8460  142.0903  165.9784 O.2     1  UNL1       -0.2751
     25 H         142.6175  140.4851  162.8929 H       1  UNL1        0.1502
     26 C         144.3851  141.6088  163.4487 C.3     1  UNL1        0.1364
     27 C         145.8771  141.7449  163.5222 C.3     1  UNL1        0.0353
     28 C         145.2069  140.5242  164.0799 C.3     1  UNL1        0.0353
     29 N         143.6945  144.1829  162.0713 N.1     1  UNL1       -0.1943
     30 C         144.0398  142.8958  162.7599 C.1     1  UNL1        0.0896
@<TRIPOS>BOND
     1    29    30    3
     2    30    26    1
     3    26    22    1
     4    22    23   am
     5    23    24    2
     6     1    23    1
     7     1     2    1
     8     2     3    1
     9     3     4    1
    10     4     5    1
    11     5     6    1
    12     6     7    1
    13     7     8    2
    14     7     9   am
    15     9    10    1
    16    10    11    1
    17    11    12    1
    18    12    15    1
    19    15    16   ar
    20    16    17   ar
    21    17    18   ar
    22    18    19    1
    23    18    20   ar
    24    20    21   ar
    25    12    13    1
    26    13    14    1
    27    26    27    1
    28    27    28    1
    29    28    26    1
    30     6     1    1
    31    14     9    1
    32    21    15   ar
    33    22    25    1
@<TRIPOS>MOLECULE
*****
 30 33 0 0 0
SMALL
GASTEIGER

@<TRIPOS>ATOM
      1 C         139.8473  141.1927  160.4673 C.3     1  UNL1        0.0851
      2 C         140.7180  141.6231  159.3243 C.3     1  UNL1        0.0096
      3 C         141.5266  140.6070  158.5735 C.3     1  UNL1        0.0005
      4 C         141.4644  139.1605  158.9657 C.3     1  UNL1        0.0005
      5 C         140.5937  138.7301  160.1088 C.3     1  UNL1        0.0096
      6 C         139.7851  139.7462  160.8595 C.3     1  UNL1        0.0853
      7 C         138.9143  139.3159  162.0026 C.2     1  UNL1        0.2257
      8 O         137.5684  138.7109  161.7337 O.2     1  UNL1       -0.2749
      9 N         139.3895  139.4906  163.4146 N.am    1  UNL1       -0.2760
     10 C         140.7355  140.0957  163.6835 C.3     1  UNL1        0.1148
     11 C         141.2107  140.2704  165.0954 C.3     1  UNL1        0.1123
     12 N         140.3399  139.8401  166.2385 N.pl3   1  UNL1       -0.3041
     13 C         138.9940  139.2351  165.9696 C.3     1  UNL1        0.1123
     14 C         138.5188  139.0603  164.5577 C.3     1  UNL1        0.1148
     15 C         140.8151  140.0148  167.6505 C.ar    1  UNL1        0.0481
     16 C         142.2849  140.0533  167.9478 C.ar    1  UNL1        0.0168
     17 C         142.7601  140.2281  169.3598 C.ar    1  UNL1        0.0309
     18 C         141.7656  140.3643  170.4744 C.ar    1  UNL1        0.1402
     19 F         142.2408  140.5390  171.8864 F       1  UNL1       -0.2042
     20 C         140.2959  140.3258  170.1771 C.ar    1  UNL1        0.0309
     21 C         139.8207  140.1510  168.7651 C.ar    1  UNL1        0.0168
     22 N         139.6060  142.8622  162.4434 N.am    1  UNL1       -0.2959
     23 C         139.0387  142.2088  161.2182 C.2     1  UNL1        0.2231
     24 O         137.6627  142.5716  160.7437 O.2     1  UNL1       -0.2751
     25 H         140.5092  142.6241  162.7547 H       1  UNL1        0.1502
     26 C         138.7974  143.8783  163.1942 C.3     1  UNL1        0.1364
     27 C         137.8748  144.4670  164.2200 C.3     1  UNL1        0.0353
     28 C         138.1883  143.0002  164.2468 C.3     1  UNL1        0.0353
     29 N         139.4542  146.3401  161.6103 N.1     1  UNL1       -0.1943
     30 C         139.1258  145.1092  162.4023 C.1     1  UNL1        0.0896
@<TRIPOS>BOND
     1    29    30    3
     2    30    26    1
     3    26    22    1
     4    22    23   am
     5    23    24    2
     6     1    23    1
     7     1     2    1
     8     2     3    1
     9     3     4    1
    10     4     5    1
    11     5     6    1
    12     6     7    1
    13     7     8    2
    14     7     9   am
    15     9    10    1
    16    10    11    1
    17    11    12    1
    18    12    15    1
    19    15    16   ar
    20    16    17   ar
    21    17    18   ar
    22    18    19    1
    23    18    20   ar
    24    20    21   ar
    25    12    13    1
    26    13    14    1
    27    26    27    1
    28    27    28    1
    29    28    26    1
    30     6     1    1
    31    14     9    1
    32    21    15   ar
    33    22    25    1
@<TRIPOS>MOLECULE
*****
 30 33 0 0 0
SMALL
GASTEIGER

@<TRIPOS>ATOM
      1 C         142.1763  141.9229  165.2963 C.3     1  UNL1        0.0851
      2 C         143.3966  142.2946  166.0853 C.3     1  UNL1        0.0096
      3 C         144.2774  143.4161  165.6203 C.3     1  UNL1        0.0005
      4 C         143.9380  144.1659  164.3663 C.3     1  UNL1        0.0005
      5 C         142.7177  143.7942  163.5773 C.3     1  UNL1        0.0096
      6 C         141.8368  142.6726  164.0422 C.3     1  UNL1        0.0853
      7 C         140.6165  142.3009  163.2532 C.2     1  UNL1        0.2257
      8 O         139.2796  142.8691  163.6272 O.2     1  UNL1       -0.2749
      9 N         140.7330  141.3608  162.0901 N.am    1  UNL1       -0.2760
     10 C         142.0699  140.7925  161.7162 C.3     1  UNL1        0.1148
     11 C         142.1865  139.8524  160.5531 C.3     1  UNL1        0.1123
     12 N         140.9661  139.4806  159.7641 N.pl3   1  UNL1       -0.3041
     13 C         139.6293  140.0489  160.1381 C.3     1  UNL1        0.1123
     14 C         139.5127  140.9890  161.3011 C.3     1  UNL1        0.1148
     15 C         141.0826  138.5405  158.6010 C.ar    1  UNL1        0.0481
     16 C         139.9032  138.3075  157.7039 C.ar    1  UNL1        0.0168
     17 C         140.0197  137.3674  156.5409 C.ar    1  UNL1        0.0309
     18 C         141.3157  136.6604  156.2749 C.ar    1  UNL1        0.1402
     19 F         141.4322  135.7203  155.1119 F       1  UNL1       -0.2042
     20 C         142.4950  136.8934  157.1720 C.ar    1  UNL1        0.0309
     21 C         142.3785  137.8335  158.3350 C.ar    1  UNL1        0.0168
     22 N         139.9309  141.0972  166.3096 N.am    1  UNL1       -0.2959
     23 C         141.2954  140.8013  165.7612 C.2     1  UNL1        0.2231
     24 O         141.7790  139.3838  165.6779 O.2     1  UNL1       -0.2751
     25 H         139.6136  142.0275  166.3643 H       1  UNL1        0.1502
     26 C         139.0500  139.9756  166.7745 C.3     1  UNL1        0.1364
     27 C         138.0296  138.8768  166.7382 C.3     1  UNL1        0.0353
     28 C         138.3423  139.6516  165.4923 C.3     1  UNL1        0.0353
     29 N         139.8540  139.8448  169.6619 N.1     1  UNL1       -0.1943
     30 C         139.4519  139.9102  168.2182 C.1     1  UNL1        0.0896
@<TRIPOS>BOND
     1    29    30    3
     2    30    26    1
     3    26    22    1
     4    22    23   am
     5    23    24    2
     6     1    23    1
     7     1     2    1
     8     2     3    1
     9     3     4    1
    10     4     5    1
    11     5     6    1
    12     6     7    1
    13     7     8    2
    14     7     9   am
    15     9    10    1
    16    10    11    1
    17    11    12    1
    18    12    15    1
    19    15    16   ar
    20    16    17   ar
    21    17    18   ar
    22    18    19    1
    23    18    20   ar
    24    20    21   ar
    25    12    13    1
    26    13    14    1
    27    26    27    1
    28    27    28    1
    29    28    26    1
    30     6     1    1
    31    14     9    1
    32    21    15   ar
    33    22    25    1
@<TRIPOS>MOLECULE
*****
 30 33 0 0 0
SMALL
GASTEIGER

@<TRIPOS>ATOM
      1 C         142.4161  142.2121  164.1360 C.3     1  UNL1        0.0851
      2 C         141.9999  143.6102  164.4854 C.3     1  UNL1        0.0096
      3 C         142.7883  144.7780  163.9710 C.3     1  UNL1        0.0005
      4 C         143.9928  144.5478  163.1073 C.3     1  UNL1        0.0005
      5 C         144.4090  143.1497  162.7579 C.3     1  UNL1        0.0096
      6 C         143.6206  141.9819  163.2722 C.3     1  UNL1        0.0853
      7 C         144.0367  140.5837  162.9229 C.2     1  UNL1        0.2257
      8 O         145.0247  139.8572  163.7866 O.2     1  UNL1       -0.2749
      9 N         143.4648  139.9120  161.7097 N.am    1  UNL1       -0.2760
     10 C         142.4768  140.6385  160.8459 C.3     1  UNL1        0.1148
     11 C         141.9049  139.9668  159.6327 C.3     1  UNL1        0.1123
     12 N         142.3210  138.5686  159.2834 N.pl3   1  UNL1       -0.3041
     13 C         143.3090  137.8422  160.1471 C.3     1  UNL1        0.1123
     14 C         143.8809  138.5139  161.3603 C.3     1  UNL1        0.1148
     15 C         141.7491  137.8970  158.0702 C.ar    1  UNL1        0.0481
     16 C         140.3228  138.1455  157.6776 C.ar    1  UNL1        0.0168
     17 C         139.7509  137.4738  156.4645 C.ar    1  UNL1        0.0309
     18 C         140.6053  136.5536  155.6439 C.ar    1  UNL1        0.1402
     19 F         140.0334  135.8819  154.4307 F       1  UNL1       -0.2042
     20 C         142.0315  136.3051  156.0364 C.ar    1  UNL1        0.0309
     21 C         142.6034  136.9768  157.2496 C.ar    1  UNL1        0.0168
     22 N         140.3819  140.6080  163.9378 N.am    1  UNL1       -0.2959
     23 C         141.6277  141.0442  164.6504 C.2     1  UNL1        0.2231
     24 O         142.0851  140.3126  165.8773 O.2     1  UNL1       -0.2751
     25 H         140.0817  141.0882  163.1325 H       1  UNL1        0.1502
     26 C         139.5935  139.4401  164.4521 C.3     1  UNL1        0.1364
     27 C         138.5940  138.6554  165.2491 C.3     1  UNL1        0.0353
     28 C         138.7116  140.1381  165.4446 C.3     1  UNL1        0.0353
     29 N         140.8099  137.2331  162.8244 N.1     1  UNL1       -0.1943
     30 C         140.2018  138.3367  163.6383 C.1     1  UNL1        0.0896
@<TRIPOS>BOND
     1    29    30    3
     2    30    26    1
     3    26    22    1
     4    22    23   am
     5    23    24    2
     6     1    23    1
     7     1     2    1
     8     2     3    1
     9     3     4    1
    10     4     5    1
    11     5     6    1
    12     6     7    1
    13     7     8    2
    14     7     9   am
    15     9    10    1
    16    10    11    1
    17    11    12    1
    18    12    15    1
    19    15    16   ar
    20    16    17   ar
    21    17    18   ar
    22    18    19    1
    23    18    20   ar
    24    20    21   ar
    25    12    13    1
    26    13    14    1
    27    26    27    1
    28    27    28    1
    29    28    26    1
    30     6     1    1
    31    14     9    1
    32    21    15   ar
    33    22    25    1
@<TRIPOS>MOLECULE
*****
 30 33 0 0 0
SMALL
GASTEIGER

@<TRIPOS>ATOM
      1 C         140.8937  139.3628  165.4339 C.3     1  UNL1        0.0851
      2 C         140.5801  139.8446  166.8193 C.3     1  UNL1        0.0096
      3 C         139.2138  139.6254  167.3982 C.3     1  UNL1        0.0005
      4 C         138.1612  138.9244  166.5917 C.3     1  UNL1        0.0005
      5 C         138.4748  138.4427  165.2062 C.3     1  UNL1        0.0096
      6 C         139.8411  138.6619  164.6273 C.3     1  UNL1        0.0853
      7 C         140.1548  138.1801  163.2418 C.2     1  UNL1        0.2257
      8 O         140.8801  136.8819  163.0454 O.2     1  UNL1       -0.2749
      9 N         139.7431  138.9966  162.0527 N.am    1  UNL1       -0.2760
     10 C         139.0177  140.2948  162.2492 C.3     1  UNL1        0.1148
     11 C         138.6060  141.1112  161.0601 C.3     1  UNL1        0.1123
     12 N         138.9197  140.6295  159.6746 N.pl3   1  UNL1       -0.3041
     13 C         139.6450  139.3313  159.4782 C.3     1  UNL1        0.1123
     14 C         140.0567  138.5148  160.6673 C.3     1  UNL1        0.1148
     15 C         138.5080  141.4459  158.4855 C.ar    1  UNL1        0.0481
     16 C         137.3504  141.0067  157.6386 C.ar    1  UNL1        0.0168
     17 C         136.9387  141.8231  156.4495 C.ar    1  UNL1        0.0309
     18 C         137.6846  143.0788  156.1073 C.ar    1  UNL1        0.1402
     19 F         137.2729  143.8953  154.9183 F       1  UNL1       -0.2042
     20 C         138.8421  143.5180  156.9542 C.ar    1  UNL1        0.0309
     21 C         139.2538  142.7015  158.1433 C.ar    1  UNL1        0.0168
     22 N         142.5108  140.7474  163.9445 N.am    1  UNL1       -0.2959
     23 C         142.2601  139.5820  164.8549 C.2     1  UNL1        0.2231
     24 O         143.3757  138.6357  165.1865 O.2     1  UNL1       -0.2751
     25 H         141.7785  141.3685  163.7269 H       1  UNL1        0.1502
     26 C         143.8771  140.9666  163.3656 C.3     1  UNL1        0.1364
     27 C         145.2805  141.4752  163.2181 C.3     1  UNL1        0.0353
     28 C         144.4584  141.8761  164.4071 C.3     1  UNL1        0.0353
     29 N         143.6633  139.2997  160.8804 N.1     1  UNL1       -0.1943
     30 C         143.7702  140.1332  162.1230 C.1     1  UNL1        0.0896
@<TRIPOS>BOND
     1    29    30    3
     2    30    26    1
     3    26    22    1
     4    22    23   am
     5    23    24    2
     6     1    23    1
     7     1     2    1
     8     2     3    1
     9     3     4    1
    10     4     5    1
    11     5     6    1
    12     6     7    1
    13     7     8    2
    14     7     9   am
    15     9    10    1
    16    10    11    1
    17    11    12    1
    18    12    15    1
    19    15    16   ar
    20    16    17   ar
    21    17    18   ar
    22    18    19    1
    23    18    20   ar
    24    20    21   ar
    25    12    13    1
    26    13    14    1
    27    26    27    1
    28    27    28    1
    29    28    26    1
    30     6     1    1
    31    14     9    1
    32    21    15   ar
    33    22    25    1
