@<TRIPOS>MOLECULE
*****
 25 26 0 0 0
SMALL
GASTEIGER

@<TRIPOS>ATOM
      1 C         138.7828  139.5530  165.6060 C.ar    1  UNL1        0.0252
      2 C         138.2277  140.7580  164.9064 C.ar    1  UNL1       -0.0009
      3 C         137.9228  140.6990  163.4389 C.ar    1  UNL1        0.0210
      4 C         138.1731  139.4349  162.6711 C.ar    1  UNL1        0.1397
      5 F         137.8682  139.3760  161.2035 F       1  UNL1       -0.2044
      6 C         138.7283  138.2299  163.3708 C.ar    1  UNL1        0.0587
      7 C         139.0331  138.2889  164.8382 C.ar    1  UNL1        0.1401
      8 F         139.5883  137.0838  165.5380 F       1  UNL1       -0.2044
      9 C         137.7561  138.9224  167.1117 C.3     1  UNL1        0.0291
     10 C         139.0877  139.6119  167.0736 C.3     1  UNL1        0.1080
     11 C         140.3134  140.2809  166.5259 C.3     1  UNL1        0.0388
     12 C         141.3815  140.7694  167.4588 C.3     1  UNL1        0.0671
     13 S         141.2239  140.5889  168.9396 S.3     1  UNL1       -0.0807
     14 C         139.9982  139.9199  169.4873 C.2     1  UNL1        0.1482
     15 N         139.8406  139.7394  170.9681 N.pl3   1  UNL1       -0.3380
     16 N         138.9301  139.4314  168.5544 N.2     1  UNL1       -0.2509
     17 H         140.5416  140.0600  171.5805 H       1  UNL1        0.1442
     18 H         139.0361  139.3003  171.3276 H       1  UNL1        0.1442
     19 C         137.3676  141.9041  162.7391 C.3     1  UNL1        0.0980
     20 N         138.1524  143.1821  162.7097 N.3     1  UNL1       -0.2890
     21 H         138.0404  143.5749  161.7751 H       1  UNL1        0.1237
     22 C         137.8350  144.2796  163.6816 C.3     1  UNL1        0.1420
     23 C         138.6797  144.4635  164.9074 C.3     1  UNL1        0.3341
     24 F         139.9245  143.6465  165.0899 F       1  UNL1       -0.1969
     25 F         138.2798  145.4642  165.9507 F       1  UNL1       -0.1969
@<TRIPOS>BOND
     1    10     9    1
     2    10     1    1
     3     1     2   ar
     4     2     3   ar
     5     3    19    1
     6    19    20    1
     7    20    22    1
     8    22    23    1
     9    23    24    1
    10    23    25    1
    11     3     4   ar
    12     4     5    1
    13     4     6   ar
    14     6     7   ar
    15     7     8    1
    16    10    11    1
    17    11    12    1
    18    12    13    1
    19    13    14    1
    20    14    15    1
    21    14    16    2
    22    16    10    1
    23     7     1   ar
    24    20    21    1
    25    15    17    1
    26    15    18    1
@<TRIPOS>MOLECULE
*****
 25 26 0 0 0
SMALL
GASTEIGER

@<TRIPOS>ATOM
      1 C         140.2805  140.1215  167.0749 C.ar    1  UNL1        0.0252
      2 C         139.8715  140.3298  168.5029 C.ar    1  UNL1       -0.0009
      3 C         140.8254  139.9989  169.6122 C.ar    1  UNL1        0.0210
      4 C         142.1883  139.4596  169.2934 C.ar    1  UNL1        0.1397
      5 F         143.1423  139.1287  170.4027 F       1  UNL1       -0.2044
      6 C         142.5973  139.2513  167.8654 C.ar    1  UNL1        0.0587
      7 C         141.6434  139.5823  166.7561 C.ar    1  UNL1        0.1401
      8 F         142.0524  139.3740  165.3280 F       1  UNL1       -0.2044
      9 C         138.9598  139.0178  166.2051 C.3     1  UNL1        0.0291
     10 C         139.3265  140.4525  165.9656 C.3     1  UNL1        0.1080
     11 C         140.0245  141.7721  166.1113 C.3     1  UNL1        0.0388
     12 C         139.6412  142.9245  165.2309 C.3     1  UNL1        0.0671
     13 S         138.5599  142.7572  164.2048 S.3     1  UNL1       -0.0807
     14 C         137.8620  141.4375  164.0591 C.2     1  UNL1        0.1482
     15 N         136.7807  141.2702  163.0329 N.pl3   1  UNL1       -0.3380
     16 N         138.2452  140.2851  164.9395 N.2     1  UNL1       -0.2509
     17 H         136.5291  142.0265  162.4551 H       1  UNL1        0.1442
     18 H         136.3226  140.4040  162.9373 H       1  UNL1        0.1442
     19 C         140.4164  140.2072  171.0403 C.3     1  UNL1        0.0980
     20 N         140.6977  141.5156  171.7177 N.3     1  UNL1       -0.2890
     21 H         140.8809  141.3057  172.6989 H       1  UNL1        0.1237
     22 C         141.8278  142.3792  171.2413 C.3     1  UNL1        0.1420
     23 C         141.6658  143.2110  170.0036 C.3     1  UNL1        0.3341
     24 F         142.3767  142.8230  168.7409 F       1  UNL1       -0.1969
     25 F         140.7931  144.4307  170.0285 F       1  UNL1       -0.1969
@<TRIPOS>BOND
     1    10     9    1
     2    10     1    1
     3     1     2   ar
     4     2     3   ar
     5     3    19    1
     6    19    20    1
     7    20    22    1
     8    22    23    1
     9    23    24    1
    10    23    25    1
    11     3     4   ar
    12     4     5    1
    13     4     6   ar
    14     6     7   ar
    15     7     8    1
    16    10    11    1
    17    11    12    1
    18    12    13    1
    19    13    14    1
    20    14    15    1
    21    14    16    2
    22    16    10    1
    23     7     1   ar
    24    20    21    1
    25    15    17    1
    26    15    18    1
@<TRIPOS>MOLECULE
*****
 25 26 0 0 0
SMALL
GASTEIGER

@<TRIPOS>ATOM
      1 C         142.1451  141.8574  166.2758 C.ar    1  UNL1        0.0252
      2 C         142.5262  142.1065  167.7050 C.ar    1  UNL1       -0.0009
      3 C         142.7902  140.9501  168.6232 C.ar    1  UNL1        0.0210
      4 C         142.6731  139.5447  168.1121 C.ar    1  UNL1        0.1397
      5 F         142.9371  138.3883  169.0304 F       1  UNL1       -0.2044
      6 C         142.2920  139.2957  166.6829 C.ar    1  UNL1        0.0587
      7 C         142.0280  140.4520  165.7647 C.ar    1  UNL1        0.1401
      8 F         141.6469  140.2030  164.3354 F       1  UNL1       -0.2044
      9 C         140.4866  142.7379  165.8365 C.3     1  UNL1        0.0291
     10 C         141.8811  143.0138  165.3575 C.3     1  UNL1        0.1080
     11 C         143.3672  142.8882  165.1975 C.3     1  UNL1        0.0388
     12 C         144.1050  143.8230  164.2855 C.3     1  UNL1        0.0671
     13 S         143.3567  144.8836  163.5336 S.3     1  UNL1       -0.0807
     14 C         141.8706  145.0092  163.6937 C.2     1  UNL1        0.1482
     15 N         141.1223  146.0698  162.9418 N.pl3   1  UNL1       -0.3380
     16 N         141.1328  144.0744  164.6056 N.2     1  UNL1       -0.2509
     17 H         141.6065  146.6833  162.3432 H       1  UNL1        0.1442
     18 H         140.1469  146.1522  163.0468 H       1  UNL1        0.1442
     19 C         143.1714  141.1991  170.0525 C.3     1  UNL1        0.0980
     20 N         142.3980  142.1879  170.8735 N.3     1  UNL1       -0.2890
     21 H         142.5412  143.1024  170.4450 H       1  UNL1        0.1237
     22 C         140.9181  142.0202  171.0517 C.3     1  UNL1        0.1420
     23 C         139.9788  143.0836  170.5651 C.3     1  UNL1        0.3341
     24 F         138.8186  143.5064  171.4167 F       1  UNL1       -0.1969
     25 F         140.1996  143.7241  169.2269 F       1  UNL1       -0.1969
@<TRIPOS>BOND
     1    10     9    1
     2    10     1    1
     3     1     2   ar
     4     2     3   ar
     5     3    19    1
     6    19    20    1
     7    20    22    1
     8    22    23    1
     9    23    24    1
    10    23    25    1
    11     3     4   ar
    12     4     5    1
    13     4     6   ar
    14     6     7   ar
    15     7     8    1
    16    10    11    1
    17    11    12    1
    18    12    13    1
    19    13    14    1
    20    14    15    1
    21    14    16    2
    22    16    10    1
    23     7     1   ar
    24    20    21    1
    25    15    17    1
    26    15    18    1
@<TRIPOS>MOLECULE
*****
 25 26 0 0 0
SMALL
GASTEIGER

@<TRIPOS>ATOM
      1 C         140.6312  142.2386  166.4414 C.ar    1  UNL1        0.0252
      2 C         140.6947  142.8260  167.8201 C.ar    1  UNL1       -0.0009
      3 C         140.1971  142.0373  168.9950 C.ar    1  UNL1        0.0210
      4 C         139.6359  140.6613  168.7911 C.ar    1  UNL1        0.1397
      5 F         139.1383  139.8726  169.9661 F       1  UNL1       -0.2044
      6 C         139.5723  140.0739  167.4124 C.ar    1  UNL1        0.0587
      7 C         140.0700  140.8626  166.2376 C.ar    1  UNL1        0.1401
      8 F         140.0064  140.2752  164.8588 F       1  UNL1       -0.2044
      9 C         142.3790  142.2814  165.6279 C.3     1  UNL1        0.0291
     10 C         141.1288  143.0273  165.2665 C.3     1  UNL1        0.1080
     11 C         139.7058  143.4993  165.3131 C.3     1  UNL1        0.0388
     12 C         139.2146  144.5009  164.3104 C.3     1  UNL1        0.0671
     13 S         140.1465  145.0305  163.2610 S.3     1  UNL1       -0.0807
     14 C         141.5695  144.5585  163.2143 C.2     1  UNL1        0.1482
     15 N         142.5013  145.0881  162.1649 N.pl3   1  UNL1       -0.3380
     16 N         142.0607  143.5569  164.2171 N.2     1  UNL1       -0.2509
     17 H         142.1789  145.7455  161.5068 H       1  UNL1        0.1442
     18 H         143.4353  144.7783  162.1343 H       1  UNL1        0.1442
     19 C         140.2606  142.6247  170.3738 C.3     1  UNL1        0.0980
     20 N         141.5229  142.5178  171.1771 N.3     1  UNL1       -0.2890
     21 H         141.7364  141.5238  171.2592 H       1  UNL1        0.1237
     22 C         142.7751  143.1917  170.6996 C.3     1  UNL1        0.1420
     23 C         143.8083  142.4075  169.9464 C.3     1  UNL1        0.3341
     24 F         143.3997  141.2136  169.1353 F       1  UNL1       -0.1969
     25 F         145.2501  142.8171  170.0041 F       1  UNL1       -0.1969
@<TRIPOS>BOND
     1    10     9    1
     2    10     1    1
     3     1     2   ar
     4     2     3   ar
     5     3    19    1
     6    19    20    1
     7    20    22    1
     8    22    23    1
     9    23    24    1
    10    23    25    1
    11     3     4   ar
    12     4     5    1
    13     4     6   ar
    14     6     7   ar
    15     7     8    1
    16    10    11    1
    17    11    12    1
    18    12    13    1
    19    13    14    1
    20    14    15    1
    21    14    16    2
    22    16    10    1
    23     7     1   ar
    24    20    21    1
    25    15    17    1
    26    15    18    1
@<TRIPOS>MOLECULE
*****
 25 26 0 0 0
SMALL
GASTEIGER

@<TRIPOS>ATOM
      1 C         140.3596  142.2043  166.4473 C.ar    1  UNL1        0.0252
      2 C         139.8582  143.4277  165.7388 C.ar    1  UNL1       -0.0009
      3 C         138.7372  143.3144  164.7486 C.ar    1  UNL1        0.0210
      4 C         138.1175  141.9778  164.4669 C.ar    1  UNL1        0.1397
      5 F         136.9965  141.8645  163.4767 F       1  UNL1       -0.2044
      6 C         138.6189  140.7544  165.1754 C.ar    1  UNL1        0.0587
      7 C         139.7399  140.8677  166.1656 C.ar    1  UNL1        0.1401
      8 F         140.2412  139.6443  166.8741 F       1  UNL1       -0.2044
      9 C         142.2629  142.0320  166.1898 C.3     1  UNL1        0.0291
     10 C         141.4806  142.3176  167.4375 C.3     1  UNL1        0.1080
     11 C         140.3091  142.5638  168.3412 C.3     1  UNL1        0.0388
     12 C         140.5301  142.8241  169.8018 C.3     1  UNL1        0.0671
     13 S         141.9229  142.8381  170.3586 S.3     1  UNL1       -0.0807
     14 C         143.0945  142.5919  169.4549 C.2     1  UNL1        0.1482
     15 N         144.4873  142.6060  170.0118 N.pl3   1  UNL1       -0.3380
     16 N         142.8734  142.3317  167.9943 N.2     1  UNL1       -0.2509
     17 H         144.6324  142.7769  170.9705 H       1  UNL1        0.1442
     18 H         145.2562  142.4444  169.4187 H       1  UNL1        0.1442
     19 C         138.2358  144.5378  164.0400 C.3     1  UNL1        0.0980
     20 N         138.5306  144.7340  162.5824 N.3     1  UNL1       -0.2890
     21 H         137.6815  145.1071  162.1579 H       1  UNL1        0.1237
     22 C         139.6563  145.6302  162.1589 C.3     1  UNL1        0.1420
     23 C         141.0676  145.2919  162.5379 C.3     1  UNL1        0.3341
     24 F         141.5605  145.5776  163.9256 F       1  UNL1       -0.1969
     25 F         141.9861  144.6680  161.5294 F       1  UNL1       -0.1969
@<TRIPOS>BOND
     1    10     9    1
     2    10     1    1
     3     1     2   ar
     4     2     3   ar
     5     3    19    1
     6    19    20    1
     7    20    22    1
     8    22    23    1
     9    23    24    1
    10    23    25    1
    11     3     4   ar
    12     4     5    1
    13     4     6   ar
    14     6     7   ar
    15     7     8    1
    16    10    11    1
    17    11    12    1
    18    12    13    1
    19    13    14    1
    20    14    15    1
    21    14    16    2
    22    16    10    1
    23     7     1   ar
    24    20    21    1
    25    15    17    1
    26    15    18    1
@<TRIPOS>MOLECULE
*****
 25 26 0 0 0
SMALL
GASTEIGER

@<TRIPOS>ATOM
      1 C         140.3806  140.5017  166.7278 C.ar    1  UNL1        0.0252
      2 C         140.8429  141.4326  165.6464 C.ar    1  UNL1       -0.0009
      3 C         139.9982  141.6411  164.4245 C.ar    1  UNL1        0.0210
      4 C         138.6911  140.9187  164.2841 C.ar    1  UNL1        0.1397
      5 F         137.8464  141.1272  163.0622 F       1  UNL1       -0.2044
      6 C         138.2288  139.9878  165.3656 C.ar    1  UNL1        0.0587
      7 C         139.0735  139.7793  166.5875 C.ar    1  UNL1        0.1401
      8 F         138.6111  138.8484  167.6690 F       1  UNL1       -0.2044
      9 C         141.9300  139.3836  166.9876 C.3     1  UNL1        0.0291
     10 C         141.2253  140.2932  167.9498 C.3     1  UNL1        0.1080
     11 C         140.2272  141.2753  168.4876 C.3     1  UNL1        0.0388
     12 C         140.3185  141.7329  169.9131 C.3     1  UNL1        0.0671
     13 S         141.4080  141.2085  170.8009 S.3     1  UNL1       -0.0807
     14 C         142.4061  140.2264  170.2631 C.2     1  UNL1        0.1482
     15 N         143.4956  139.7020  171.1508 N.pl3   1  UNL1       -0.3380
     16 N         142.3148  139.7688  168.8375 N.2     1  UNL1       -0.2509
     17 H         143.5555  140.0024  172.0864 H       1  UNL1        0.1442
     18 H         144.1507  139.0574  170.7978 H       1  UNL1        0.1442
     19 C         140.4606  142.5720  163.3429 C.3     1  UNL1        0.0980
     20 N         139.7430  143.8688  163.1122 N.3     1  UNL1       -0.2890
     21 H         138.8046  143.6328  162.7894 H       1  UNL1        0.1237
     22 C         139.5803  144.8466  164.2380 C.3     1  UNL1        0.1420
     23 C         138.4045  144.7366  165.1629 C.3     1  UNL1        0.3341
     24 F         137.3052  143.7602  164.8657 F       1  UNL1       -0.1969
     25 F         138.3279  145.6030  166.3849 F       1  UNL1       -0.1969
@<TRIPOS>BOND
     1    10     9    1
     2    10     1    1
     3     1     2   ar
     4     2     3   ar
     5     3    19    1
     6    19    20    1
     7    20    22    1
     8    22    23    1
     9    23    24    1
    10    23    25    1
    11     3     4   ar
    12     4     5    1
    13     4     6   ar
    14     6     7   ar
    15     7     8    1
    16    10    11    1
    17    11    12    1
    18    12    13    1
    19    13    14    1
    20    14    15    1
    21    14    16    2
    22    16    10    1
    23     7     1   ar
    24    20    21    1
    25    15    17    1
    26    15    18    1
@<TRIPOS>MOLECULE
*****
 25 26 0 0 0
SMALL
GASTEIGER

@<TRIPOS>ATOM
      1 C         142.7815  139.9899  166.0897 C.ar    1  UNL1        0.0252
      2 C         142.6533  139.2405  167.3827 C.ar    1  UNL1       -0.0009
      3 C         142.6995  139.9809  168.6864 C.ar    1  UNL1        0.0210
      4 C         142.8738  141.4707  168.6971 C.ar    1  UNL1        0.1397
      5 F         142.9200  142.2111  170.0008 F       1  UNL1       -0.2044
      6 C         143.0020  142.2201  167.4040 C.ar    1  UNL1        0.0587
      7 C         142.9558  141.4797  166.1004 C.ar    1  UNL1        0.1401
      8 F         143.0840  142.2291  164.8072 F       1  UNL1       -0.2044
      9 C         144.2183  139.2966  165.0064 C.3     1  UNL1        0.0291
     10 C         142.7353  139.2495  164.7859 C.3     1  UNL1        0.1080
     11 C         141.2684  139.4596  165.0183 C.3     1  UNL1        0.0388
     12 C         140.2703  138.9457  164.0234 C.3     1  UNL1        0.0671
     13 S         140.7392  138.2216  162.7962 S.3     1  UNL1       -0.0807
     14 C         142.2061  138.0115  162.5639 C.2     1  UNL1        0.1482
     15 N         142.6750  137.2875  161.3367 N.pl3   1  UNL1       -0.3380
     16 N         143.2042  138.5255  163.5587 N.2     1  UNL1       -0.2509
     17 H         142.0199  136.9502  160.6838 H       1  UNL1        0.1442
     18 H         143.6378  137.1496  161.1842 H       1  UNL1        0.1442
     19 C         142.5713  139.2316  169.9795 C.3     1  UNL1        0.0980
     20 N         141.2259  139.0706  170.6229 N.3     1  UNL1       -0.2890
     21 H         141.3923  138.7528  171.5777 H       1  UNL1        0.1237
     22 C         140.2927  140.2415  170.7127 C.3     1  UNL1        0.1420
     23 C         139.1739  140.3863  169.7241 C.3     1  UNL1        0.3341
     24 F         137.7783  139.9921  170.1077 F       1  UNL1       -0.1969
     25 F         139.4505  140.9254  168.3519 F       1  UNL1       -0.1969
@<TRIPOS>BOND
     1    10     9    1
     2    10     1    1
     3     1     2   ar
     4     2     3   ar
     5     3    19    1
     6    19    20    1
     7    20    22    1
     8    22    23    1
     9    23    24    1
    10    23    25    1
    11     3     4   ar
    12     4     5    1
    13     4     6   ar
    14     6     7   ar
    15     7     8    1
    16    10    11    1
    17    11    12    1
    18    12    13    1
    19    13    14    1
    20    14    15    1
    21    14    16    2
    22    16    10    1
    23     7     1   ar
    24    20    21    1
    25    15    17    1
    26    15    18    1
@<TRIPOS>MOLECULE
*****
 25 26 0 0 0
SMALL
GASTEIGER

@<TRIPOS>ATOM
      1 C         140.7926  142.3763  166.7415 C.ar    1  UNL1        0.0252
      2 C         139.7080  143.2280  166.1514 C.ar    1  UNL1       -0.0009
      3 C         139.9704  144.0187  164.9041 C.ar    1  UNL1        0.0210
      4 C         141.3173  143.9579  164.2469 C.ar    1  UNL1        0.1397
      5 F         141.5797  144.7487  162.9996 F       1  UNL1       -0.2044
      6 C         142.4020  143.1062  164.8370 C.ar    1  UNL1        0.0587
      7 C         142.1396  142.3154  166.0843 C.ar    1  UNL1        0.1401
      8 F         143.2242  141.4637  166.6744 F       1  UNL1       -0.2044
      9 C         140.1150  140.5832  166.9528 C.3     1  UNL1        0.0291
     10 C         140.5303  141.5854  167.9889 C.3     1  UNL1        0.1080
     11 C         141.0366  142.8622  168.5916 C.3     1  UNL1        0.0388
     12 C         141.1364  143.0002  170.0819 C.3     1  UNL1        0.0671
     13 S         140.7298  141.8612  170.9694 S.3     1  UNL1       -0.0807
     14 C         140.2235  140.5845  170.3667 C.2     1  UNL1        0.1482
     15 N         139.8169  139.4455  171.2542 N.pl3   1  UNL1       -0.3380
     16 N         140.1237  140.4465  168.8764 N.2     1  UNL1       -0.2509
     17 H         139.8824  139.5361  172.2323 H       1  UNL1        0.1442
     18 H         139.4846  138.6075  170.8585 H       1  UNL1        0.1442
     19 C         138.8857  144.8705  164.3140 C.3     1  UNL1        0.0980
     20 N         137.7713  144.2341  163.5374 N.3     1  UNL1       -0.2890
     21 H         137.3611  144.9661  162.9574 H       1  UNL1        0.1237
     22 C         138.0561  143.0728  162.6318 C.3     1  UNL1        0.1420
     23 C         137.6504  141.6872  163.0387 C.3     1  UNL1        0.3341
     24 F         137.7348  141.2733  164.4781 F       1  UNL1       -0.1969
     25 F         137.1602  140.7156  162.0065 F       1  UNL1       -0.1969
@<TRIPOS>BOND
     1    10     9    1
     2    10     1    1
     3     1     2   ar
     4     2     3   ar
     5     3    19    1
     6    19    20    1
     7    20    22    1
     8    22    23    1
     9    23    24    1
    10    23    25    1
    11     3     4   ar
    12     4     5    1
    13     4     6   ar
    14     6     7   ar
    15     7     8    1
    16    10    11    1
    17    11    12    1
    18    12    13    1
    19    13    14    1
    20    14    15    1
    21    14    16    2
    22    16    10    1
    23     7     1   ar
    24    20    21    1
    25    15    17    1
    26    15    18    1
@<TRIPOS>MOLECULE
*****
 25 26 0 0 0
SMALL
GASTEIGER

@<TRIPOS>ATOM
      1 C         141.4353  140.8661  166.9059 C.ar    1  UNL1        0.0252
      2 C         140.3210  141.4356  166.0790 C.ar    1  UNL1       -0.0009
      3 C         139.7657  140.6517  164.9270 C.ar    1  UNL1        0.0210
      4 C         140.3248  139.2983  164.6018 C.ar    1  UNL1        0.1397
      5 F         139.7695  138.5145  163.4497 F       1  UNL1       -0.2044
      6 C         141.4392  138.7288  165.4287 C.ar    1  UNL1        0.0587
      7 C         141.9944  139.5126  166.5807 C.ar    1  UNL1        0.1401
      8 F         143.1088  138.9431  167.4077 F       1  UNL1       -0.2044
      9 C         142.8582  142.1670  166.9488 C.3     1  UNL1        0.0291
     10 C         141.9907  141.6499  168.0580 C.3     1  UNL1        0.1080
     11 C         140.9304  140.8607  168.7669 C.3     1  UNL1        0.0388
     12 C         140.7266  141.0348  170.2428 C.3     1  UNL1        0.0671
     13 S         141.5832  141.9983  171.0096 S.3     1  UNL1       -0.0807
     14 C         142.6435  142.7875  170.3007 C.2     1  UNL1        0.1482
     15 N         143.5002  143.7510  171.0675 N.pl3   1  UNL1       -0.3380
     16 N         142.8473  142.6134  168.8248 N.2     1  UNL1       -0.2509
     17 H         143.3664  143.8653  172.0362 H       1  UNL1        0.1442
     18 H         144.1961  144.2690  170.6022 H       1  UNL1        0.1442
     19 C         138.6513  141.2213  164.1000 C.3     1  UNL1        0.0980
     20 N         137.7273  142.2450  164.6899 N.3     1  UNL1       -0.2890
     21 H         137.8427  142.1973  165.7022 H       1  UNL1        0.1237
     22 C         137.8640  143.6886  164.3060 C.3     1  UNL1        0.1420
     23 C         138.7561  144.5949  165.1015 C.3     1  UNL1        0.3341
     24 F         138.1674  145.5066  166.1371 F       1  UNL1       -0.1969
     25 F         140.2367  144.5897  164.8614 F       1  UNL1       -0.1969
@<TRIPOS>BOND
     1    10     9    1
     2    10     1    1
     3     1     2   ar
     4     2     3   ar
     5     3    19    1
     6    19    20    1
     7    20    22    1
     8    22    23    1
     9    23    24    1
    10    23    25    1
    11     3     4   ar
    12     4     5    1
    13     4     6   ar
    14     6     7   ar
    15     7     8    1
    16    10    11    1
    17    11    12    1
    18    12    13    1
    19    13    14    1
    20    14    15    1
    21    14    16    2
    22    16    10    1
    23     7     1   ar
    24    20    21    1
    25    15    17    1
    26    15    18    1
