@<TRIPOS>MOLECULE
*****
 35 38 0 0 0
SMALL
GASTEIGER

@<TRIPOS>ATOM
      1 C         142.5954  141.3208  167.4054 C.ar    1  UNL1        0.1060
      2 C         142.2740  139.8558  167.4296 C.ar    1  UNL1        0.0215
      3 C         142.6740  138.9811  166.2786 C.ar    1  UNL1        0.0384
      4 C         143.3954  139.5714  165.1033 C.ar    1  UNL1        0.1432
      5 C         143.7168  141.0364  165.0791 C.ar    1  UNL1        0.0888
      6 C         143.3168  141.9111  166.2302 C.ar    1  UNL1        0.0259
      7 C         144.4383  141.6266  163.9039 C.2     1  UNL1        0.2525
      8 O         145.9378  141.6525  163.8802 O.2     1  UNL1       -0.2698
      9 N         143.6601  142.1908  162.7523 N.am    1  UNL1       -0.2660
     10 C         142.1653  142.2347  162.6355 C.3     1  UNL1        0.1236
     11 C         141.8216  142.8813  161.3264 C.ar    1  UNL1        0.0338
     12 C         140.6853  143.3080  160.4451 C.ar    1  UNL1        0.0991
     13 N         141.2653  143.9275  159.2081 N.ar    1  UNL1       -0.2265
     14 N         142.7601  143.8836  159.3251 N.ar    1  UNL1       -0.1679
     15 C         143.1039  143.2370  160.6342 C.ar    1  UNL1        0.0981
     16 C         144.2402  142.8103  161.5155 C.3     1  UNL1        0.1414
     17 C         140.4872  144.4918  158.0566 C.ar    1  UNL1        0.1102
     18 C         140.5799  145.9535  157.7333 C.ar    1  UNL1        0.0214
     19 C         139.8018  146.5179  156.5817 C.ar    1  UNL1        0.0017
     20 C         138.9309  145.6204  155.7535 C.ar    1  UNL1        0.0024
     21 C         138.8382  144.1585  156.0768 C.ar    1  UNL1        0.0312
     22 C         139.6163  143.5942  157.2283 C.ar    1  UNL1        0.1577
     23 F         139.5236  142.1324  157.5516 F       1  UNL1       -0.2026
     24 S         142.1954  142.1955  168.5564 S.O2    1  UNL1        0.0087
     25 O         143.6355  142.5418  168.7936 O.2     1  UNL1       -0.1686
     26 O         140.7553  141.8492  168.3191 O.2     1  UNL1       -0.1686
     27 C         140.4590  143.7514  169.7027 C.3     1  UNL1        0.0276
     28 C         141.7954  143.0703  169.7074 C.3     1  UNL1        0.1560
     29 O         143.7954  138.6967  163.9523 O.3     1  UNL1       -0.4702
     30 C         142.7882  138.3312  162.9026 C.3     1  UNL1        0.2599
     31 C         141.4935  137.6852  163.2981 C.3     1  UNL1        0.0566
     32 C         143.0756  138.6117  161.4574 C.3     1  UNL1        0.4340
     33 F         143.3629  138.8923  160.0121 F       1  UNL1       -0.1664
     34 F         144.4060  139.1928  161.8347 F       1  UNL1       -0.1664
     35 F         141.7452  138.0307  161.0801 F       1  UNL1       -0.1664
@<TRIPOS>BOND
     1    27    28    1
     2    28    24    1
     3    24    25    2
     4    24    26    2
     5    24     1    1
     6     1     2   ar
     7     2     3   ar
     8     3     4   ar
     9     4    29    1
    10    29    30    1
    11    30    31    1
    12    30    32    1
    13    32    33    1
    14    32    34    1
    15    32    35    1
    16     4     5   ar
    17     5     7    1
    18     7     8    2
    19     7     9   am
    20     9    10    1
    21    10    11    1
    22    11    12   ar
    23    12    13   ar
    24    13    17    1
    25    17    18   ar
    26    18    19   ar
    27    19    20   ar
    28    20    21   ar
    29    21    22   ar
    30    22    23    1
    31    13    14   ar
    32    14    15   ar
    33    15    16    1
    34     5     6   ar
    35     6     1   ar
    36    16     9    1
    37    15    11   ar
    38    22    17   ar
@<TRIPOS>MOLECULE
*****
 35 38 0 0 0
SMALL
GASTEIGER

@<TRIPOS>ATOM
      1 C         142.4028  140.0218  167.4464 C.ar    1  UNL1        0.1060
      2 C         143.2207  138.8397  167.0181 C.ar    1  UNL1        0.0215
      3 C         142.7716  137.9962  165.8619 C.ar    1  UNL1        0.0384
      4 C         141.5045  138.3349  165.1340 C.ar    1  UNL1        0.1432
      5 C         140.6865  139.5170  165.5623 C.ar    1  UNL1        0.0888
      6 C         141.1357  140.3605  166.7186 C.ar    1  UNL1        0.0259
      7 C         139.4194  139.8556  164.8345 C.2     1  UNL1        0.2525
      8 O         138.1003  139.3727  165.3605 O.2     1  UNL1       -0.2698
      9 N         139.4714  140.6771  163.5805 N.am    1  UNL1       -0.2660
     10 C         140.7100  141.2274  162.9377 C.3     1  UNL1        0.1236
     11 C         140.2980  141.9830  161.7091 C.ar    1  UNL1        0.0338
     12 C         140.8088  142.7900  160.5526 C.ar    1  UNL1        0.0991
     13 N         139.6314  143.2055  159.7212 N.ar    1  UNL1       -0.2265
     14 N         138.3929  142.6552  160.3640 N.ar    1  UNL1       -0.1679
     15 C         138.8048  141.8996  161.5926 C.ar    1  UNL1        0.0981
     16 C         138.2940  141.0926  162.7492 C.3     1  UNL1        0.1414
     17 C         139.6834  144.0270  158.4673 C.ar    1  UNL1        0.1102
     18 C         139.0645  143.5070  157.2038 C.ar    1  UNL1        0.0214
     19 C         139.1165  144.3285  155.9498 C.ar    1  UNL1        0.0017
     20 C         139.7874  145.6700  155.9593 C.ar    1  UNL1        0.0024
     21 C         140.4063  146.1901  157.2229 C.ar    1  UNL1        0.0312
     22 C         140.3544  145.3686  158.4768 C.ar    1  UNL1        0.1577
     23 F         140.9733  145.8886  159.7403 F       1  UNL1       -0.2026
     24 S         142.8519  140.8654  168.6026 S.O2    1  UNL1        0.0087
     25 O         142.7577  142.0919  167.7443 O.2     1  UNL1       -0.1686
     26 O         142.9460  139.6388  169.4609 O.2     1  UNL1       -0.1686
     27 C         142.5510  142.9593  170.1108 C.3     1  UNL1        0.0276
     28 C         143.3010  141.7089  169.7588 C.3     1  UNL1        0.1560
     29 O         141.0554  137.4914  163.9778 O.3     1  UNL1       -0.4702
     30 C         141.4833  137.8411  162.5834 C.3     1  UNL1        0.2599
     31 C         142.9320  138.0887  162.2833 C.3     1  UNL1        0.0566
     32 C         140.4627  137.9433  161.4890 C.3     1  UNL1        0.4340
     33 F         139.4421  138.0456  160.3944 F       1  UNL1       -0.1664
     34 F         139.3977  137.4812  162.4388 F       1  UNL1       -0.1664
     35 F         141.5276  138.4055  160.5390 F       1  UNL1       -0.1664
@<TRIPOS>BOND
     1    27    28    1
     2    28    24    1
     3    24    25    2
     4    24    26    2
     5    24     1    1
     6     1     2   ar
     7     2     3   ar
     8     3     4   ar
     9     4    29    1
    10    29    30    1
    11    30    31    1
    12    30    32    1
    13    32    33    1
    14    32    34    1
    15    32    35    1
    16     4     5   ar
    17     5     7    1
    18     7     8    2
    19     7     9   am
    20     9    10    1
    21    10    11    1
    22    11    12   ar
    23    12    13   ar
    24    13    17    1
    25    17    18   ar
    26    18    19   ar
    27    19    20   ar
    28    20    21   ar
    29    21    22   ar
    30    22    23    1
    31    13    14   ar
    32    14    15   ar
    33    15    16    1
    34     5     6   ar
    35     6     1   ar
    36    16     9    1
    37    15    11   ar
    38    22    17   ar
@<TRIPOS>MOLECULE
*****
 35 38 0 0 0
SMALL
GASTEIGER

@<TRIPOS>ATOM
      1 C         140.9335  140.2249  167.9732 C.ar    1  UNL1        0.1060
      2 C         142.3870  139.8634  168.0544 C.ar    1  UNL1        0.0215
      3 C         143.0540  139.1743  166.9010 C.ar    1  UNL1        0.0384
      4 C         142.2674  138.8468  165.6665 C.ar    1  UNL1        0.1432
      5 C         140.8139  139.2083  165.5853 C.ar    1  UNL1        0.0888
      6 C         140.1469  139.8973  166.7387 C.ar    1  UNL1        0.0259
      7 C         140.0274  138.8807  164.3507 C.2     1  UNL1        0.2525
      8 O         139.2763  137.5854  164.2617 O.2     1  UNL1       -0.2698
      9 N         139.9922  139.8484  163.2052 N.am    1  UNL1       -0.2660
     10 C         140.6896  141.1752  163.1500 C.3     1  UNL1        0.1236
     11 C         140.3817  141.8060  161.8244 C.ar    1  UNL1        0.0338
     12 C         140.6224  143.0158  160.9710 C.ar    1  UNL1        0.0991
     13 N         139.8835  142.8266  159.6794 N.ar    1  UNL1       -0.2265
     14 N         139.1860  141.4997  159.7346 N.ar    1  UNL1       -0.1679
     15 C         139.4939  140.8690  161.0602 C.ar    1  UNL1        0.0981
     16 C         139.2532  139.6591  161.9136 C.3     1  UNL1        0.1414
     17 C         139.8482  143.7943  158.5339 C.ar    1  UNL1        0.1102
     18 C         139.3700  143.3433  157.1856 C.ar    1  UNL1        0.0214
     19 C         139.3347  144.3109  156.0400 C.ar    1  UNL1        0.0017
     20 C         139.7775  145.7297  156.2427 C.ar    1  UNL1        0.0024
     21 C         140.2558  146.1807  157.5911 C.ar    1  UNL1        0.0312
     22 C         140.2911  145.2131  158.7366 C.ar    1  UNL1        0.1577
     23 F         140.7692  145.6640  160.0849 F       1  UNL1       -0.2026
     24 S         140.2664  140.9139  169.1266 S.O2    1  UNL1        0.0087
     25 O         140.2208  139.6154  169.8760 O.2     1  UNL1       -0.1686
     26 O         140.3119  142.2125  168.3771 O.2     1  UNL1       -0.1686
     27 C         139.8593  143.0578  170.5365 C.3     1  UNL1        0.0276
     28 C         139.5993  141.6030  170.2799 C.3     1  UNL1        0.1560
     29 O         142.9345  138.1577  164.5131 O.3     1  UNL1       -0.4702
     30 C         143.6639  138.9626  163.4787 C.3     1  UNL1        0.2599
     31 C         143.3718  138.7535  162.0223 C.3     1  UNL1        0.0566
     32 C         144.6855  139.9767  163.9005 C.3     1  UNL1        0.4340
     33 F         145.7073  140.9907  164.3224 F       1  UNL1       -0.1664
     34 F         143.9277  141.0446  163.1690 F       1  UNL1       -0.1664
     35 F         145.4434  138.9088  164.6321 F       1  UNL1       -0.1664
@<TRIPOS>BOND
     1    27    28    1
     2    28    24    1
     3    24    25    2
     4    24    26    2
     5    24     1    1
     6     1     2   ar
     7     2     3   ar
     8     3     4   ar
     9     4    29    1
    10    29    30    1
    11    30    31    1
    12    30    32    1
    13    32    33    1
    14    32    34    1
    15    32    35    1
    16     4     5   ar
    17     5     7    1
    18     7     8    2
    19     7     9   am
    20     9    10    1
    21    10    11    1
    22    11    12   ar
    23    12    13   ar
    24    13    17    1
    25    17    18   ar
    26    18    19   ar
    27    19    20   ar
    28    20    21   ar
    29    21    22   ar
    30    22    23    1
    31    13    14   ar
    32    14    15   ar
    33    15    16    1
    34     5     6   ar
    35     6     1   ar
    36    16     9    1
    37    15    11   ar
    38    22    17   ar
@<TRIPOS>MOLECULE
*****
 35 38 0 0 0
SMALL
GASTEIGER

@<TRIPOS>ATOM
      1 C         141.2429  142.8744  164.5269 C.ar    1  UNL1        0.1060
      2 C         141.0593  142.2477  165.8773 C.ar    1  UNL1        0.0215
      3 C         140.0172  141.1874  166.0767 C.ar    1  UNL1        0.0384
      4 C         139.1588  140.7537  164.9255 C.ar    1  UNL1        0.1432
      5 C         139.3424  141.3803  163.5751 C.ar    1  UNL1        0.0888
      6 C         140.3845  142.4407  163.3758 C.ar    1  UNL1        0.0259
      7 C         138.4840  140.9466  162.4240 C.2     1  UNL1        0.2525
      8 O         137.0218  141.2811  162.4111 O.2     1  UNL1       -0.2698
      9 N         139.0877  140.1784  161.2859 N.am    1  UNL1       -0.2660
     10 C         140.5265  139.7733  161.1605 C.3     1  UNL1        0.1236
     11 C         140.6866  139.0250  159.8704 C.ar    1  UNL1        0.0338
     12 C         141.6747  138.3121  158.9956 C.ar    1  UNL1        0.0991
     13 N         140.9457  137.8141  157.7829 N.ar    1  UNL1       -0.2265
     14 N         139.5068  138.2194  157.9083 N.ar    1  UNL1       -0.1679
     15 C         139.3467  138.9676  159.1984 C.ar    1  UNL1        0.0981
     16 C         138.3585  139.6805  160.0732 C.3     1  UNL1        0.1414
     17 C         141.5493  137.0460  156.6448 C.ar    1  UNL1        0.1102
     18 C         143.0389  136.9019  156.5437 C.ar    1  UNL1        0.0214
     19 C         143.6427  136.1337  155.4055 C.ar    1  UNL1        0.0017
     20 C         142.7568  135.5096  154.3685 C.ar    1  UNL1        0.0024
     21 C         141.2670  135.6537  154.4696 C.ar    1  UNL1        0.0312
     22 C         140.6634  136.4218  155.6077 C.ar    1  UNL1        0.1577
     23 F         139.1738  136.5659  155.7088 F       1  UNL1       -0.2026
     24 S         142.2850  143.9347  164.3275 S.O2    1  UNL1        0.0087
     25 O         141.2774  144.7920  163.6206 O.2     1  UNL1       -0.1686
     26 O         143.2926  143.0774  165.0345 O.2     1  UNL1       -0.1686
     27 C         144.1899  144.9774  162.9013 C.3     1  UNL1        0.0276
     28 C         143.3270  144.9951  164.1282 C.3     1  UNL1        0.1560
     29 O         138.1167  139.6933  165.1248 O.3     1  UNL1       -0.4702
     30 C         138.5229  138.2534  165.2323 C.3     1  UNL1        0.2599
     31 C         137.9786  137.4013  166.3403 C.3     1  UNL1        0.0566
     32 C         139.4734  137.6655  164.2319 C.3     1  UNL1        0.4340
     33 F         140.4239  137.0776  163.2313 F       1  UNL1       -0.1664
     34 F         140.5755  137.7180  165.2480 F       1  UNL1       -0.1664
     35 F         138.3713  137.6130  163.2157 F       1  UNL1       -0.1664
@<TRIPOS>BOND
     1    27    28    1
     2    28    24    1
     3    24    25    2
     4    24    26    2
     5    24     1    1
     6     1     2   ar
     7     2     3   ar
     8     3     4   ar
     9     4    29    1
    10    29    30    1
    11    30    31    1
    12    30    32    1
    13    32    33    1
    14    32    34    1
    15    32    35    1
    16     4     5   ar
    17     5     7    1
    18     7     8    2
    19     7     9   am
    20     9    10    1
    21    10    11    1
    22    11    12   ar
    23    12    13   ar
    24    13    17    1
    25    17    18   ar
    26    18    19   ar
    27    19    20   ar
    28    20    21   ar
    29    21    22   ar
    30    22    23    1
    31    13    14   ar
    32    14    15   ar
    33    15    16    1
    34     5     6   ar
    35     6     1   ar
    36    16     9    1
    37    15    11   ar
    38    22    17   ar
@<TRIPOS>MOLECULE
*****
 35 38 0 0 0
SMALL
GASTEIGER

@<TRIPOS>ATOM
      1 C         142.0378  141.3143  167.3506 C.ar    1  UNL1        0.1060
      2 C         140.7438  142.0529  167.1771 C.ar    1  UNL1        0.0215
      3 C         140.4174  142.6952  165.8615 C.ar    1  UNL1        0.0384
      4 C         141.3850  142.5988  164.7193 C.ar    1  UNL1        0.1432
      5 C         142.6790  141.8602  164.8927 C.ar    1  UNL1        0.0888
      6 C         143.0054  141.2179  166.2084 C.ar    1  UNL1        0.0259
      7 C         143.6465  141.7638  163.7505 C.2     1  UNL1        0.2525
      8 O         144.9359  142.5290  163.7933 O.2     1  UNL1       -0.2698
      9 N         143.3245  140.9023  162.5656 N.am    1  UNL1       -0.2660
     10 C         142.0811  140.0835  162.3826 C.3     1  UNL1        0.1236
     11 C         142.1777  139.3835  161.0595 C.ar    1  UNL1        0.0338
     12 C         141.4689  138.4448  160.1286 C.ar    1  UNL1        0.0991
     13 N         142.3338  138.2508  158.9186 N.ar    1  UNL1       -0.2265
     14 N         143.5773  139.0697  159.1016 N.ar    1  UNL1       -0.1679
     15 C         143.4807  139.7697  160.4247 C.ar    1  UNL1        0.0981
     16 C         144.1896  140.7083  161.3555 C.3     1  UNL1        0.1414
     17 C         142.0119  137.3893  157.7337 C.ar    1  UNL1        0.1102
     18 C         142.9269  136.2628  157.3547 C.ar    1  UNL1        0.0214
     19 C         142.6051  135.4012  156.1697 C.ar    1  UNL1        0.0017
     20 C         141.3682  135.6663  155.3637 C.ar    1  UNL1        0.0024
     21 C         140.4531  136.7929  155.7426 C.ar    1  UNL1        0.0312
     22 C         140.7750  137.6544  156.9275 C.ar    1  UNL1        0.1577
     23 F         139.8600  138.7810  157.3064 F       1  UNL1       -0.2026
     24 S         142.3643  140.6720  168.6662 S.O2    1  UNL1        0.0087
     25 O         142.9838  139.5113  167.9458 O.2     1  UNL1       -0.1686
     26 O         141.7447  141.8327  169.3866 O.2     1  UNL1       -0.1686
     27 C         142.7494  138.5350  170.0927 C.3     1  UNL1        0.0276
     28 C         142.6907  140.0298  169.9819 C.3     1  UNL1        0.1560
     29 O         141.0586  143.2411  163.4036 O.3     1  UNL1       -0.4702
     30 C         141.2241  144.7218  163.2303 C.3     1  UNL1        0.2599
     31 C         142.4415  145.4091  163.7740 C.3     1  UNL1        0.0566
     32 C         140.1723  145.5153  162.5133 C.3     1  UNL1        0.4340
     33 F         139.1204  146.3088  161.7964 F       1  UNL1       -0.1664
     34 F         141.0753  145.6355  161.3216 F       1  UNL1       -0.1664
     35 F         139.2693  145.3951  163.7050 F       1  UNL1       -0.1664
@<TRIPOS>BOND
     1    27    28    1
     2    28    24    1
     3    24    25    2
     4    24    26    2
     5    24     1    1
     6     1     2   ar
     7     2     3   ar
     8     3     4   ar
     9     4    29    1
    10    29    30    1
    11    30    31    1
    12    30    32    1
    13    32    33    1
    14    32    34    1
    15    32    35    1
    16     4     5   ar
    17     5     7    1
    18     7     8    2
    19     7     9   am
    20     9    10    1
    21    10    11    1
    22    11    12   ar
    23    12    13   ar
    24    13    17    1
    25    17    18   ar
    26    18    19   ar
    27    19    20   ar
    28    20    21   ar
    29    21    22   ar
    30    22    23    1
    31    13    14   ar
    32    14    15   ar
    33    15    16    1
    34     5     6   ar
    35     6     1   ar
    36    16     9    1
    37    15    11   ar
    38    22    17   ar
@<TRIPOS>MOLECULE
*****
 35 38 0 0 0
SMALL
GASTEIGER

@<TRIPOS>ATOM
      1 C         140.7880  141.4017  168.0984 C.ar    1  UNL1        0.1060
      2 C         140.1114  140.0827  168.3277 C.ar    1  UNL1        0.0215
      3 C         139.1732  139.5315  167.2953 C.ar    1  UNL1        0.0384
      4 C         138.9115  140.2994  166.0336 C.ar    1  UNL1        0.1432
      5 C         139.5881  141.6183  165.8042 C.ar    1  UNL1        0.0888
      6 C         140.5263  142.1695  166.8367 C.ar    1  UNL1        0.0259
      7 C         139.3263  142.3861  164.5424 C.2     1  UNL1        0.2525
      8 O         138.1610  143.3273  164.4653 O.2     1  UNL1       -0.2698
      9 N         140.2300  142.2125  163.3578 N.am    1  UNL1       -0.2660
     10 C         141.4277  141.3123  163.2869 C.3     1  UNL1        0.1236
     11 C         142.0325  141.4522  161.9214 C.ar    1  UNL1        0.0338
     12 C         143.1465  140.9823  161.0336 C.ar    1  UNL1        0.0991
     13 N         143.0111  141.6786  159.7119 N.ar    1  UNL1       -0.2265
     14 N         141.8133  142.5788  159.7828 N.ar    1  UNL1       -0.1679
     15 C         141.2085  142.4389  161.1483 C.ar    1  UNL1        0.0981
     16 C         140.0945  142.9088  162.0361 C.3     1  UNL1        0.1414
     17 C         143.9147  141.5051  158.5273 C.ar    1  UNL1        0.1102
     18 C         145.0322  142.4765  158.2878 C.ar    1  UNL1        0.0214
     19 C         145.9359  142.3030  157.1032 C.ar    1  UNL1        0.0017
     20 C         145.7220  141.1581  156.1580 C.ar    1  UNL1        0.0024
     21 C         144.6043  140.1866  156.3975 C.ar    1  UNL1        0.0312
     22 C         143.7007  140.3601  157.5820 C.ar    1  UNL1        0.1577
     23 F         142.5832  139.3887  157.8215 F       1  UNL1       -0.2026
     24 S         141.7262  141.9529  169.1308 S.O2    1  UNL1        0.0087
     25 O         140.9697  143.2482  169.1267 O.2     1  UNL1       -0.1686
     26 O         142.4827  140.6577  169.1348 O.2     1  UNL1       -0.1686
     27 C         144.1390  142.5446  169.8912 C.3     1  UNL1        0.0276
     28 C         142.6644  142.5042  170.1632 C.3     1  UNL1        0.1560
     29 O         137.9733  139.7481  165.0012 O.3     1  UNL1       -0.4702
     30 C         138.5089  138.9422  163.8550 C.3     1  UNL1        0.2599
     31 C         139.4354  137.7917  164.1155 C.3     1  UNL1        0.0566
     32 C         138.1179  139.2867  162.4485 C.3     1  UNL1        0.4340
     33 F         137.7270  139.6311  161.0418 F       1  UNL1       -0.1664
     34 F         137.3020  140.4380  162.9571 F       1  UNL1       -0.1664
     35 F         138.9338  138.1354  161.9398 F       1  UNL1       -0.1664
@<TRIPOS>BOND
     1    27    28    1
     2    28    24    1
     3    24    25    2
     4    24    26    2
     5    24     1    1
     6     1     2   ar
     7     2     3   ar
     8     3     4   ar
     9     4    29    1
    10    29    30    1
    11    30    31    1
    12    30    32    1
    13    32    33    1
    14    32    34    1
    15    32    35    1
    16     4     5   ar
    17     5     7    1
    18     7     8    2
    19     7     9   am
    20     9    10    1
    21    10    11    1
    22    11    12   ar
    23    12    13   ar
    24    13    17    1
    25    17    18   ar
    26    18    19   ar
    27    19    20   ar
    28    20    21   ar
    29    21    22   ar
    30    22    23    1
    31    13    14   ar
    32    14    15   ar
    33    15    16    1
    34     5     6   ar
    35     6     1   ar
    36    16     9    1
    37    15    11   ar
    38    22    17   ar
@<TRIPOS>MOLECULE
*****
 35 38 0 0 0
SMALL
GASTEIGER

@<TRIPOS>ATOM
      1 C         141.6900  140.8183  166.2153 C.ar    1  UNL1        0.1060
      2 C         142.2301  142.2057  166.0329 C.ar    1  UNL1        0.0215
      3 C         141.7752  143.0412  164.8732 C.ar    1  UNL1        0.0384
      4 C         140.7800  142.4893  163.8959 C.ar    1  UNL1        0.1432
      5 C         140.2398  141.1019  164.0783 C.ar    1  UNL1        0.0888
      6 C         140.6948  140.2664  165.2381 C.ar    1  UNL1        0.0259
      7 C         139.2447  140.5500  163.1010 C.2     1  UNL1        0.2525
      8 O         137.7755  140.6686  163.3790 O.2     1  UNL1       -0.2698
      9 N         139.7188  139.8796  161.8457 N.am    1  UNL1       -0.2660
     10 C         141.1485  139.6879  161.4345 C.3     1  UNL1        0.1236
     11 C         141.1597  138.9730  160.1159 C.ar    1  UNL1        0.0338
     12 C         142.0502  138.4127  159.0468 C.ar    1  UNL1        0.0991
     13 N         141.1778  137.8162  157.9823 N.ar    1  UNL1       -0.2265
     14 N         139.7480  138.0079  158.3935 N.ar    1  UNL1       -0.1679
     15 C         139.7369  138.7228  159.7121 C.ar    1  UNL1        0.0981
     16 C         138.8463  139.2831  160.7812 C.3     1  UNL1        0.1414
     17 C         141.6519  137.1458  156.7270 C.ar    1  UNL1        0.1102
     18 C         142.7824  136.1616  156.7834 C.ar    1  UNL1        0.0214
     19 C         143.2565  135.4911  155.5281 C.ar    1  UNL1        0.0017
     20 C         142.6000  135.8049  154.2164 C.ar    1  UNL1        0.0024
     21 C         141.4695  136.7892  154.1600 C.ar    1  UNL1        0.0312
     22 C         140.9954  137.4596  155.4152 C.ar    1  UNL1        0.1577
     23 F         139.8649  138.4439  155.3589 F       1  UNL1       -0.2026
     24 S         142.1449  139.9827  167.3750 S.O2    1  UNL1        0.0087
     25 O         143.0360  139.1970  166.4593 O.2     1  UNL1       -0.1686
     26 O         141.2538  140.7685  168.2907 O.2     1  UNL1       -0.1686
     27 C         142.4951  139.6829  169.9319 C.3     1  UNL1        0.0276
     28 C         142.5998  139.1472  168.5347 C.3     1  UNL1        0.1560
     29 O         140.3251  143.3248  162.7362 O.3     1  UNL1       -0.4702
     30 C         139.4241  144.5016  162.9674 C.3     1  UNL1        0.2599
     31 C         139.6000  145.7515  162.1570 C.3     1  UNL1        0.0566
     32 C         138.3473  144.4286  164.0091 C.3     1  UNL1        0.4340
     33 F         137.2704  144.3556  165.0508 F       1  UNL1       -0.1664
     34 F         139.2433  145.1323  164.9848 F       1  UNL1       -0.1664
     35 F         137.4513  143.7249  163.0335 F       1  UNL1       -0.1664
@<TRIPOS>BOND
     1    27    28    1
     2    28    24    1
     3    24    25    2
     4    24    26    2
     5    24     1    1
     6     1     2   ar
     7     2     3   ar
     8     3     4   ar
     9     4    29    1
    10    29    30    1
    11    30    31    1
    12    30    32    1
    13    32    33    1
    14    32    34    1
    15    32    35    1
    16     4     5   ar
    17     5     7    1
    18     7     8    2
    19     7     9   am
    20     9    10    1
    21    10    11    1
    22    11    12   ar
    23    12    13   ar
    24    13    17    1
    25    17    18   ar
    26    18    19   ar
    27    19    20   ar
    28    20    21   ar
    29    21    22   ar
    30    22    23    1
    31    13    14   ar
    32    14    15   ar
    33    15    16    1
    34     5     6   ar
    35     6     1   ar
    36    16     9    1
    37    15    11   ar
    38    22    17   ar
@<TRIPOS>MOLECULE
*****
 35 38 0 0 0
SMALL
GASTEIGER

@<TRIPOS>ATOM
      1 C         140.8680  140.4121  167.6673 C.ar    1  UNL1        0.1060
      2 C         142.3280  140.1108  167.5011 C.ar    1  UNL1        0.0215
      3 C         142.7890  139.2304  166.3776 C.ar    1  UNL1        0.0384
      4 C         141.7898  138.6512  165.4202 C.ar    1  UNL1        0.1432
      5 C         140.3299  138.9525  165.5864 C.ar    1  UNL1        0.0888
      6 C         139.8689  139.8330  166.7100 C.ar    1  UNL1        0.0259
      7 C         139.3309  138.3734  164.6290 C.2     1  UNL1        0.2525
      8 O         138.5904  137.1186  164.9857 O.2     1  UNL1       -0.2698
      9 N         139.0723  139.0490  163.3150 N.am    1  UNL1       -0.2660
     10 C         139.7328  140.3028  162.8232 C.3     1  UNL1        0.1236
     11 C         139.1765  140.6181  161.4663 C.ar    1  UNL1        0.0338
     12 C         139.2409  141.5879  160.3238 C.ar    1  UNL1        0.0991
     13 N         138.2765  141.1284  159.2708 N.ar    1  UNL1       -0.2265
     14 N         137.6160  139.8746  159.7626 N.ar    1  UNL1       -0.1679
     15 C         138.1722  139.5593  161.1195 C.ar    1  UNL1        0.0981
     16 C         138.1078  138.5895  162.2621 C.3     1  UNL1        0.1414
     17 C         138.0179  141.8040  157.9568 C.ar    1  UNL1        0.1102
     18 C         136.9596  141.2730  157.0359 C.ar    1  UNL1        0.0214
     19 C         136.7010  141.9486  155.7219 C.ar    1  UNL1        0.0017
     20 C         137.5007  143.1552  155.3287 C.ar    1  UNL1        0.0024
     21 C         138.5591  143.6862  156.2497 C.ar    1  UNL1        0.0312
     22 C         138.8177  143.0106  157.5637 C.ar    1  UNL1        0.1577
     23 F         139.8759  143.5416  158.4846 F       1  UNL1       -0.2026
     24 S         140.4070  141.2925  168.7908 S.O2    1  UNL1        0.0087
     25 O         139.7625  140.1106  169.4525 O.2     1  UNL1       -0.1686
     26 O         141.0514  142.4744  168.1291 O.2     1  UNL1       -0.1686
     27 C         140.3303  143.6227  169.9373 C.3     1  UNL1        0.0276
     28 C         139.9460  142.1729  169.9144 C.3     1  UNL1        0.1560
     29 O         142.2508  137.7708  164.2967 O.3     1  UNL1       -0.4702
     30 C         142.8871  138.3773  163.0812 C.3     1  UNL1        0.2599
     31 C         144.1330  139.2012  163.2189 C.3     1  UNL1        0.0566
     32 C         142.2777  138.1598  161.7280 C.3     1  UNL1        0.4340
     33 F         141.6682  137.9424  160.3747 F       1  UNL1       -0.1664
     34 F         141.3452  137.1401  162.3117 F       1  UNL1       -0.1664
     35 F         143.2101  139.1794  161.1442 F       1  UNL1       -0.1664
@<TRIPOS>BOND
     1    27    28    1
     2    28    24    1
     3    24    25    2
     4    24    26    2
     5    24     1    1
     6     1     2   ar
     7     2     3   ar
     8     3     4   ar
     9     4    29    1
    10    29    30    1
    11    30    31    1
    12    30    32    1
    13    32    33    1
    14    32    34    1
    15    32    35    1
    16     4     5   ar
    17     5     7    1
    18     7     8    2
    19     7     9   am
    20     9    10    1
    21    10    11    1
    22    11    12   ar
    23    12    13   ar
    24    13    17    1
    25    17    18   ar
    26    18    19   ar
    27    19    20   ar
    28    20    21   ar
    29    21    22   ar
    30    22    23    1
    31    13    14   ar
    32    14    15   ar
    33    15    16    1
    34     5     6   ar
    35     6     1   ar
    36    16     9    1
    37    15    11   ar
    38    22    17   ar
@<TRIPOS>MOLECULE
*****
 35 38 0 0 0
SMALL
GASTEIGER

@<TRIPOS>ATOM
      1 C         139.3591  142.2735  158.3602 C.ar    1  UNL1        0.1060
      2 C         140.7756  142.1534  157.8818 C.ar    1  UNL1        0.0215
      3 C         141.8793  142.8470  158.6241 C.ar    1  UNL1        0.0384
      4 C         141.5662  143.6606  159.8448 C.ar    1  UNL1        0.1432
      5 C         140.1496  143.7807  160.3232 C.ar    1  UNL1        0.0888
      6 C         139.0460  143.0870  159.5808 C.ar    1  UNL1        0.0259
      7 C         139.8366  144.5943  161.5439 C.2     1  UNL1        0.2525
      8 O         139.3717  146.0131  161.4005 O.2     1  UNL1       -0.2698
      9 N         139.9886  143.9890  162.9079 N.am    1  UNL1       -0.2660
     10 C         140.4413  142.5904  163.2064 C.3     1  UNL1        0.1236
     11 C         140.4470  142.4131  164.6959 C.ar    1  UNL1        0.0338
     12 C         140.7303  141.4392  165.8009 C.ar    1  UNL1        0.0991
     13 N         140.4563  142.1261  167.1060 N.ar    1  UNL1       -0.2265
     14 N         140.0036  143.5248  166.8074 N.ar    1  UNL1       -0.1679
     15 C         139.9979  143.7021  165.3179 C.ar    1  UNL1        0.0981
     16 C         139.7146  144.6760  164.2128 C.3     1  UNL1        0.1414
     17 C         140.6083  141.5209  168.4699 C.ar    1  UNL1        0.1102
     18 C         139.5463  140.6085  169.0081 C.ar    1  UNL1        0.0214
     19 C         139.6982  140.0032  170.3722 C.ar    1  UNL1        0.0017
     20 C         140.9122  140.3103  171.1980 C.ar    1  UNL1        0.0024
     21 C         141.9742  141.2228  170.6597 C.ar    1  UNL1        0.0312
     22 C         141.8223  141.8280  169.2958 C.ar    1  UNL1        0.1577
     23 F         142.8843  142.7404  168.7575 F       1  UNL1       -0.2026
     24 S         138.2554  141.5799  157.6179 S.O2    1  UNL1        0.0087
     25 O         138.1563  140.5626  158.7158 O.2     1  UNL1       -0.1686
     26 O         138.3546  142.5972  156.5200 O.2     1  UNL1       -0.1686
     27 C         136.3098  141.6508  155.8975 C.3     1  UNL1        0.0276
     28 C         137.1518  140.8863  156.8756 C.3     1  UNL1        0.1560
     29 O         142.6698  144.3542  160.5871 O.3     1  UNL1       -0.4702
     30 C         143.5570  143.5747  161.5119 C.3     1  UNL1        0.2599
     31 C         144.1493  142.2721  161.0622 C.3     1  UNL1        0.0566
     32 C         143.8520  144.0978  162.8864 C.3     1  UNL1        0.4340
     33 F         144.1470  144.6211  164.2610 F       1  UNL1       -0.1664
     34 F         144.8216  142.9746  163.1059 F       1  UNL1       -0.1664
     35 F         142.8825  145.2211  162.6669 F       1  UNL1       -0.1664
@<TRIPOS>BOND
     1    27    28    1
     2    28    24    1
     3    24    25    2
     4    24    26    2
     5    24     1    1
     6     1     2   ar
     7     2     3   ar
     8     3     4   ar
     9     4    29    1
    10    29    30    1
    11    30    31    1
    12    30    32    1
    13    32    33    1
    14    32    34    1
    15    32    35    1
    16     4     5   ar
    17     5     7    1
    18     7     8    2
    19     7     9   am
    20     9    10    1
    21    10    11    1
    22    11    12   ar
    23    12    13   ar
    24    13    17    1
    25    17    18   ar
    26    18    19   ar
    27    19    20   ar
    28    20    21   ar
    29    21    22   ar
    30    22    23    1
    31    13    14   ar
    32    14    15   ar
    33    15    16    1
    34     5     6   ar
    35     6     1   ar
    36    16     9    1
    37    15    11   ar
    38    22    17   ar
