@<TRIPOS>MOLECULE
*****
 27 28 0 0 0
SMALL
GASTEIGER

@<TRIPOS>ATOM
      1 C         139.4947  140.0271  168.1320 C.ar    1  UNL1        0.1558
      2 C         139.2566  140.4060  169.5638 C.ar    1  UNL1        0.1342
      3 N         140.1938  141.3515  170.2551 N.ar    1  UNL1       -0.2263
      4 C         141.3689  141.9180  169.5147 C.ar    1  UNL1        0.2025
      5 C         141.6068  141.5391  168.0830 C.ar    1  UNL1        0.2543
      6 N         140.6697  140.5937  167.3917 N.ar    1  UNL1       -0.1931
      7 N         138.5576  139.0816  167.4407 N.pl3   1  UNL1       -0.2820
      8 H         137.9665  138.4991  167.9704 H       1  UNL1        0.1551
      9 C         137.8780  140.0948  163.6642 C.ar    1  UNL1        0.0597
     10 C         137.9146  140.1527  165.1626 C.ar    1  UNL1        0.0496
     11 C         138.5210  139.0237  165.9422 C.ar    1  UNL1        0.1345
     12 N         139.0908  137.8369  165.2234 N.ar    1  UNL1       -0.2281
     13 C         139.0542  137.7790  163.7250 C.ar    1  UNL1        0.1129
     14 C         138.4478  138.9080  162.9454 C.ar    1  UNL1        0.0899
     15 CL        138.4112  138.8500  161.4469 Cl      1  UNL1       -0.0793
     16 C         138.1120  142.4042  162.4973 C.3     1  UNL1        0.1086
     17 N         137.2716  141.2237  162.8846 N.pl3   1  UNL1       -0.3305
     18 H         136.3219  141.1899  162.6272 H       1  UNL1        0.1469
     19 C         142.3060  142.8635  170.2060 C.1     1  UNL1        0.1246
     20 N         143.2431  143.8090  170.8973 N.1     1  UNL1       -0.1891
     21 O         142.7820  142.1057  167.3426 O.3     1  UNL1       -0.4610
     22 C         142.8428  142.0105  165.8469 C.3     1  UNL1        0.1836
     23 C         142.0471  142.9607  165.0020 C.3     1  UNL1        0.0488
     24 C         143.6993  140.9651  165.1961 C.3     1  UNL1        0.1163
     25 N         143.2099  139.5509  165.0950 N.3     1  UNL1       -0.2673
     26 C         142.4777  139.0966  163.8672 C.3     1  UNL1        0.0898
     27 C         143.4526  138.5908  166.2217 C.3     1  UNL1        0.0898
@<TRIPOS>BOND
     1    16    17    1
     2    17     9    1
     3     9    10   ar
     4    10    11   ar
     5    11     7    1
     6     7     1    1
     7     1     2   ar
     8     2     3   ar
     9     3     4   ar
    10     4    19    1
    11    19    20    3
    12     4     5   ar
    13     5    21    1
    14    21    22    1
    15    22    23    1
    16    22    24    1
    17    24    25    1
    18    25    26    1
    19    25    27    1
    20     5     6   ar
    21    11    12   ar
    22    12    13   ar
    23    13    14   ar
    24    14    15    1
    25    14     9   ar
    26     6     1   ar
    27    17    18    1
    28     7     8    1
@<TRIPOS>MOLECULE
*****
 27 28 0 0 0
SMALL
GASTEIGER

@<TRIPOS>ATOM
      1 C         138.9510  139.8403  166.2955 C.ar    1  UNL1        0.1558
      2 C         138.6575  139.6835  167.7582 C.ar    1  UNL1        0.1342
      3 N         139.7735  139.7489  168.7583 N.ar    1  UNL1       -0.2263
      4 C         141.1831  139.9712  168.2956 C.ar    1  UNL1        0.2025
      5 C         141.4765  140.1279  166.8330 C.ar    1  UNL1        0.2543
      6 N         140.3604  140.0625  165.8330 N.ar    1  UNL1       -0.1931
      7 N         137.8349  139.7748  165.2954 N.pl3   1  UNL1       -0.2820
      8 H         137.0108  139.2804  165.5091 H       1  UNL1        0.1551
      9 C         137.9091  142.6332  162.5433 C.ar    1  UNL1        0.0597
     10 C         137.7696  141.9453  163.8689 C.ar    1  UNL1        0.0496
     11 C         137.9745  140.4628  163.9697 C.ar    1  UNL1        0.1345
     12 N         138.3189  139.6682  162.7450 N.ar    1  UNL1       -0.2281
     13 C         138.4585  140.3562  161.4195 C.ar    1  UNL1        0.1129
     14 C         138.2536  141.8387  161.3186 C.ar    1  UNL1        0.0899
     15 CL        138.3932  142.5266  159.9929 Cl      1  UNL1       -0.0793
     16 C         138.8426  145.0511  162.7241 C.3     1  UNL1        0.1086
     17 N         137.7042  144.1158  162.4424 N.pl3   1  UNL1       -0.3305
     18 H         136.8226  144.4749  162.1914 H       1  UNL1        0.1469
     19 C         142.2991  140.0366  169.2957 C.1     1  UNL1        0.1246
     20 N         143.4152  140.1020  170.2958 N.1     1  UNL1       -0.1891
     21 O         142.8860  140.3501  166.3704 O.3     1  UNL1       -0.4610
     22 C         143.6521  139.2286  165.7339 C.3     1  UNL1        0.1836
     23 C         143.9299  137.9752  166.5095 C.3     1  UNL1        0.0488
     24 C         144.1403  139.3605  164.3217 C.3     1  UNL1        0.1163
     25 N         144.3471  140.7204  163.7235 N.3     1  UNL1       -0.2673
     26 C         143.2251  141.3971  162.9932 C.3     1  UNL1        0.0898
     27 C         145.6758  141.4038  163.8558 C.3     1  UNL1        0.0898
@<TRIPOS>BOND
     1    16    17    1
     2    17     9    1
     3     9    10   ar
     4    10    11   ar
     5    11     7    1
     6     7     1    1
     7     1     2   ar
     8     2     3   ar
     9     3     4   ar
    10     4    19    1
    11    19    20    3
    12     4     5   ar
    13     5    21    1
    14    21    22    1
    15    22    23    1
    16    22    24    1
    17    24    25    1
    18    25    26    1
    19    25    27    1
    20     5     6   ar
    21    11    12   ar
    22    12    13   ar
    23    13    14   ar
    24    14    15    1
    25    14     9   ar
    26     6     1   ar
    27    17    18    1
    28     7     8    1
@<TRIPOS>MOLECULE
*****
 27 28 0 0 0
SMALL
GASTEIGER

@<TRIPOS>ATOM
      1 C         143.2082  138.6527  165.4228 C.ar    1  UNL1        0.1558
      2 C         144.3299  139.3224  164.6858 C.ar    1  UNL1        0.1342
      3 N         144.3785  139.2719  163.1874 N.ar    1  UNL1       -0.2263
      4 C         143.3053  138.5516  162.4261 C.ar    1  UNL1        0.2025
      5 C         142.1836  137.8819  163.1631 C.ar    1  UNL1        0.2543
      6 N         142.1350  137.9325  164.6615 N.ar    1  UNL1       -0.1931
      7 N         143.1596  138.7032  166.9212 N.pl3   1  UNL1       -0.2820
      8 H         143.5005  137.9463  167.4505 H       1  UNL1        0.1551
      9 C         141.1564  142.0715  167.5469 C.ar    1  UNL1        0.0597
     10 C         141.7243  140.8678  166.8552 C.ar    1  UNL1        0.0496
     11 C         142.5917  139.9069  167.6130 C.ar    1  UNL1        0.1345
     12 N         142.8912  140.1497  169.0626 N.ar    1  UNL1       -0.2281
     13 C         142.3233  141.3534  169.7543 C.ar    1  UNL1        0.1129
     14 C         141.4559  142.3143  168.9965 C.ar    1  UNL1        0.0899
     15 CL        140.8880  143.5181  169.6883 Cl      1  UNL1       -0.0793
     16 C         140.6053  143.3619  165.3604 C.3     1  UNL1        0.1086
     17 N         140.2890  143.0324  166.7891 N.pl3   1  UNL1       -0.3305
     18 H         139.5121  143.4468  167.2295 H       1  UNL1        0.1469
     19 C         143.3538  138.5011  160.9277 C.1     1  UNL1        0.1246
     20 N         143.4024  138.4506  159.4294 N.1     1  UNL1       -0.1891
     21 O         141.1104  137.1617  162.4018 O.3     1  UNL1       -0.4610
     22 C         139.8198  137.8574  162.0851 C.3     1  UNL1        0.1836
     23 C         139.6462  138.5524  160.7672 C.3     1  UNL1        0.0488
     24 C         138.7028  137.8582  163.0863 C.3     1  UNL1        0.1163
     25 N         138.7648  138.7666  164.2784 N.3     1  UNL1       -0.2673
     26 C         138.5708  138.2088  165.6572 C.3     1  UNL1        0.0898
     27 C         139.0208  140.2328  164.0916 C.3     1  UNL1        0.0898
@<TRIPOS>BOND
     1    16    17    1
     2    17     9    1
     3     9    10   ar
     4    10    11   ar
     5    11     7    1
     6     7     1    1
     7     1     2   ar
     8     2     3   ar
     9     3     4   ar
    10     4    19    1
    11    19    20    3
    12     4     5   ar
    13     5    21    1
    14    21    22    1
    15    22    23    1
    16    22    24    1
    17    24    25    1
    18    25    26    1
    19    25    27    1
    20     5     6   ar
    21    11    12   ar
    22    12    13   ar
    23    13    14   ar
    24    14    15    1
    25    14     9   ar
    26     6     1   ar
    27    17    18    1
    28     7     8    1
@<TRIPOS>MOLECULE
*****
 27 28 0 0 0
SMALL
GASTEIGER

@<TRIPOS>ATOM
      1 C         138.5294  139.2099  165.3890 C.ar    1  UNL1        0.1558
      2 C         138.8646  138.1075  164.4285 C.ar    1  UNL1        0.1342
      3 N         138.6206  138.2922  162.9601 N.ar    1  UNL1       -0.2263
      4 C         138.0414  139.5793  162.4521 C.ar    1  UNL1        0.2025
      5 C         137.7062  140.6816  163.4125 C.ar    1  UNL1        0.2543
      6 N         137.9502  140.4969  164.8810 N.ar    1  UNL1       -0.1931
      7 N         138.7734  139.0252  166.8574 N.pl3   1  UNL1       -0.2820
      8 H         138.3694  138.2627  167.3315 H       1  UNL1        0.1551
      9 C         141.7344  141.5261  167.7106 C.ar    1  UNL1        0.0597
     10 C         140.8749  140.5491  166.9645 C.ar    1  UNL1        0.0496
     11 C         139.6330  140.0022  167.6036 C.ar    1  UNL1        0.1345
     12 N         139.2506  140.4322  168.9888 N.ar    1  UNL1       -0.2281
     13 C         140.1101  141.4091  169.7349 C.ar    1  UNL1        0.1129
     14 C         141.3520  141.9561  169.0958 C.ar    1  UNL1        0.0899
     15 CL        142.2116  142.9331  169.8420 Cl      1  UNL1       -0.0793
     16 C         142.9661  142.4597  165.6223 C.3     1  UNL1        0.1086
     17 N         142.9764  142.0730  167.0715 N.pl3   1  UNL1       -0.3305
     18 H         143.7982  142.1782  167.6032 H       1  UNL1        0.1469
     19 C         137.7974  139.7640  160.9836 C.1     1  UNL1        0.1246
     20 N         137.5534  139.9487  159.5152 N.1     1  UNL1       -0.1891
     21 O         137.1270  141.9687  162.9046 O.3     1  UNL1       -0.4610
     22 C         137.9154  143.2402  163.0127 C.3     1  UNL1        0.1836
     23 C         137.7978  144.0933  164.2408 C.3     1  UNL1        0.0488
     24 C         138.8213  143.6586  161.8928 C.3     1  UNL1        0.1163
     25 N         139.9259  144.6406  162.1486 N.3     1  UNL1       -0.2673
     26 C         139.7430  146.0855  161.7896 C.3     1  UNL1        0.0898
     27 C         141.2135  144.1778  162.7634 C.3     1  UNL1        0.0898
@<TRIPOS>BOND
     1    16    17    1
     2    17     9    1
     3     9    10   ar
     4    10    11   ar
     5    11     7    1
     6     7     1    1
     7     1     2   ar
     8     2     3   ar
     9     3     4   ar
    10     4    19    1
    11    19    20    3
    12     4     5   ar
    13     5    21    1
    14    21    22    1
    15    22    23    1
    16    22    24    1
    17    24    25    1
    18    25    26    1
    19    25    27    1
    20     5     6   ar
    21    11    12   ar
    22    12    13   ar
    23    13    14   ar
    24    14    15    1
    25    14     9   ar
    26     6     1   ar
    27    17    18    1
    28     7     8    1
@<TRIPOS>MOLECULE
*****
 27 28 0 0 0
SMALL
GASTEIGER

@<TRIPOS>ATOM
      1 C         140.8388  141.7818  165.7862 C.ar    1  UNL1        0.1558
      2 C         139.8562  141.2256  164.7986 C.ar    1  UNL1        0.1342
      3 N         138.8559  140.1963  165.2344 N.ar    1  UNL1       -0.2263
      4 C         138.8382  139.7231  166.6578 C.ar    1  UNL1        0.2025
      5 C         139.8208  140.2793  167.6453 C.ar    1  UNL1        0.2543
      6 N         140.8211  141.3086  167.2095 N.ar    1  UNL1       -0.1931
      7 N         141.8391  142.8111  165.3504 N.pl3   1  UNL1       -0.2820
      8 H         142.2190  143.4376  166.0080 H       1  UNL1        0.1551
      9 C         142.1740  144.0689  161.6013 C.ar    1  UNL1        0.0597
     10 C         141.7526  143.9941  163.0389 C.ar    1  UNL1        0.0496
     11 C         142.2605  142.8858  163.9127 C.ar    1  UNL1        0.1345
     12 N         143.1899  141.8522  163.3489 N.ar    1  UNL1       -0.2281
     13 C         143.6113  141.9269  161.9113 C.ar    1  UNL1        0.1129
     14 C         143.1033  143.0353  161.0375 C.ar    1  UNL1        0.0899
     15 CL        143.5248  143.1100  159.5998 Cl      1  UNL1       -0.0793
     16 C         140.2447  145.6399  160.8530 C.3     1  UNL1        0.1086
     17 N         141.6660  145.1772  160.7275 N.pl3   1  UNL1       -0.3305
     18 H         142.2655  145.6010  160.0715 H       1  UNL1        0.1469
     19 C         137.8379  138.6938  167.0936 C.1     1  UNL1        0.1246
     20 N         136.8377  137.6644  167.5294 N.1     1  UNL1       -0.1891
     21 O         139.8031  139.8061  169.0686 O.3     1  UNL1       -0.4610
     22 C         140.9978  140.0288  169.9479 C.3     1  UNL1        0.1836
     23 C         142.1989  139.1395  169.8205 C.3     1  UNL1        0.0488
     24 C         140.9913  141.1409  170.9545 C.3     1  UNL1        0.1163
     25 N         141.3189  142.5410  170.5275 N.3     1  UNL1       -0.2673
     26 C         142.7386  143.0236  170.5646 C.3     1  UNL1        0.0898
     27 C         140.2267  143.4585  170.0634 C.3     1  UNL1        0.0898
@<TRIPOS>BOND
     1    16    17    1
     2    17     9    1
     3     9    10   ar
     4    10    11   ar
     5    11     7    1
     6     7     1    1
     7     1     2   ar
     8     2     3   ar
     9     3     4   ar
    10     4    19    1
    11    19    20    3
    12     4     5   ar
    13     5    21    1
    14    21    22    1
    15    22    23    1
    16    22    24    1
    17    24    25    1
    18    25    26    1
    19    25    27    1
    20     5     6   ar
    21    11    12   ar
    22    12    13   ar
    23    13    14   ar
    24    14    15    1
    25    14     9   ar
    26     6     1   ar
    27    17    18    1
    28     7     8    1
@<TRIPOS>MOLECULE
*****
 27 28 0 0 0
SMALL
GASTEIGER

@<TRIPOS>ATOM
      1 C         138.4917  139.1412  165.0015 C.ar    1  UNL1        0.1558
      2 C         138.8499  138.0347  164.0541 C.ar    1  UNL1        0.1342
      3 N         138.6587  138.2200  162.5779 N.ar    1  UNL1       -0.2263
      4 C         138.1093  139.5117  162.0491 C.ar    1  UNL1        0.2025
      5 C         137.7511  140.6181  162.9964 C.ar    1  UNL1        0.2543
      6 N         137.9423  140.4329  164.4726 N.ar    1  UNL1       -0.1931
      7 N         138.6830  138.9560  166.4777 N.pl3   1  UNL1       -0.2820
      8 H         138.0654  138.3819  166.9858 H       1  UNL1        0.1551
      9 C         140.7323  140.9393  169.2375 C.ar    1  UNL1        0.0597
     10 C         139.6002  140.2498  168.5356 C.ar    1  UNL1        0.0496
     11 C         139.8152  139.6456  167.1796 C.ar    1  UNL1        0.1345
     12 N         141.1624  139.7308  166.5256 N.ar    1  UNL1       -0.2281
     13 C         142.2945  140.4203  167.2275 C.ar    1  UNL1        0.1129
     14 C         142.0795  141.0246  168.5835 C.ar    1  UNL1        0.0899
     15 CL        143.2118  141.7141  169.2854 Cl      1  UNL1       -0.0793
     16 C         139.9556  142.9289  170.7167 C.3     1  UNL1        0.1086
     17 N         140.5173  141.5435  170.5935 N.pl3   1  UNL1       -0.3305
     18 H         140.7449  141.0308  171.4026 H       1  UNL1        0.1469
     19 C         137.9180  139.6969  160.5729 C.1     1  UNL1        0.1246
     20 N         137.7268  139.8822  159.0967 N.1     1  UNL1       -0.1891
     21 O         137.2016  141.9099  162.4676 O.3     1  UNL1       -0.4610
     22 C         138.0737  143.1290  162.4121 C.3     1  UNL1        0.1836
     23 C         137.7263  144.3375  163.2299 C.3     1  UNL1        0.0488
     24 C         139.2932  143.1397  161.5387 C.3     1  UNL1        0.1163
     25 N         140.6578  143.2139  162.1569 N.3     1  UNL1       -0.2673
     26 C         141.3543  144.5367  162.2803 C.3     1  UNL1        0.0898
     27 C         141.3260  141.9654  162.6516 C.3     1  UNL1        0.0898
@<TRIPOS>BOND
     1    16    17    1
     2    17     9    1
     3     9    10   ar
     4    10    11   ar
     5    11     7    1
     6     7     1    1
     7     1     2   ar
     8     2     3   ar
     9     3     4   ar
    10     4    19    1
    11    19    20    3
    12     4     5   ar
    13     5    21    1
    14    21    22    1
    15    22    23    1
    16    22    24    1
    17    24    25    1
    18    25    26    1
    19    25    27    1
    20     5     6   ar
    21    11    12   ar
    22    12    13   ar
    23    13    14   ar
    24    14    15    1
    25    14     9   ar
    26     6     1   ar
    27    17    18    1
    28     7     8    1
@<TRIPOS>MOLECULE
*****
 27 28 0 0 0
SMALL
GASTEIGER

@<TRIPOS>ATOM
      1 C         141.9621  141.8974  166.8312 C.ar    1  UNL1        0.1558
      2 C         141.9582  142.3532  168.2604 C.ar    1  UNL1        0.1342
      3 N         140.9369  141.8131  169.2170 N.ar    1  UNL1       -0.2263
      4 C         139.9195  140.8172  168.7446 C.ar    1  UNL1        0.2025
      5 C         139.9234  140.3615  167.3156 C.ar    1  UNL1        0.2543
      6 N         140.9447  140.9015  166.3589 N.ar    1  UNL1       -0.1931
      7 N         142.9834  142.4374  165.8746 N.pl3   1  UNL1       -0.2820
      8 H         143.9430  142.3355  166.0696 H       1  UNL1        0.1551
      9 C         140.7980  144.5690  163.3388 C.ar    1  UNL1        0.0597
     10 C         141.2388  143.8737  164.5926 C.ar    1  UNL1        0.0496
     11 C         142.5427  143.1328  164.6206 C.ar    1  UNL1        0.1345
     12 N         143.4058  143.0871  163.3947 N.ar    1  UNL1       -0.2281
     13 C         142.9651  143.7824  162.1409 C.ar    1  UNL1        0.1129
     14 C         141.6611  144.5234  162.1129 C.ar    1  UNL1        0.0899
     15 CL        141.2204  145.2187  160.8589 Cl      1  UNL1       -0.0793
     16 C         138.2158  144.5690  163.0516 C.3     1  UNL1        0.1086
     17 N         139.4940  145.3099  163.3108 N.pl3   1  UNL1       -0.3305
     18 H         139.4772  146.2825  163.4625 H       1  UNL1        0.1469
     19 C         138.8982  140.2772  169.7013 C.1     1  UNL1        0.1246
     20 N         137.8768  139.7371  170.6580 N.1     1  UNL1       -0.1891
     21 O         138.9060  139.3656  166.8431 O.3     1  UNL1       -0.4610
     22 C         138.6306  139.2129  165.3766 C.3     1  UNL1        0.1836
     23 C         138.0696  140.3637  164.5951 C.3     1  UNL1        0.0488
     24 C         138.9163  137.9094  164.6915 C.3     1  UNL1        0.1163
     25 N         140.1778  137.7400  163.8979 N.3     1  UNL1       -0.2673
     26 C         140.1347  137.7976  162.3996 C.3     1  UNL1        0.0898
     27 C         141.4824  137.5128  164.6025 C.3     1  UNL1        0.0898
@<TRIPOS>BOND
     1    16    17    1
     2    17     9    1
     3     9    10   ar
     4    10    11   ar
     5    11     7    1
     6     7     1    1
     7     1     2   ar
     8     2     3   ar
     9     3     4   ar
    10     4    19    1
    11    19    20    3
    12     4     5   ar
    13     5    21    1
    14    21    22    1
    15    22    23    1
    16    22    24    1
    17    24    25    1
    18    25    26    1
    19    25    27    1
    20     5     6   ar
    21    11    12   ar
    22    12    13   ar
    23    13    14   ar
    24    14    15    1
    25    14     9   ar
    26     6     1   ar
    27    17    18    1
    28     7     8    1
@<TRIPOS>MOLECULE
*****
 27 28 0 0 0
SMALL
GASTEIGER

@<TRIPOS>ATOM
      1 C         138.7448  139.3663  165.4161 C.ar    1  UNL1        0.1558
      2 C         138.1176  138.7241  166.6180 C.ar    1  UNL1        0.1342
      3 N         138.4390  139.2311  167.9926 N.ar    1  UNL1       -0.2263
      4 C         139.3876  140.3803  168.1654 C.ar    1  UNL1        0.2025
      5 C         140.0146  141.0224  166.9636 C.ar    1  UNL1        0.2543
      6 N         139.6932  140.5154  165.5889 N.ar    1  UNL1       -0.1931
      7 N         138.4234  138.8593  164.0415 N.pl3   1  UNL1       -0.2820
      8 H         138.2015  137.9096  163.9064 H       1  UNL1        0.1551
      9 C         138.0380  142.1682  161.8844 C.ar    1  UNL1        0.0597
     10 C         138.0215  141.2283  163.0533 C.ar    1  UNL1        0.0496
     11 C         138.4399  139.7992  162.8725 C.ar    1  UNL1        0.1345
     12 N         138.8749  139.3100  161.5229 N.ar    1  UNL1       -0.2281
     13 C         138.8915  140.2499  160.3541 C.ar    1  UNL1        0.1129
     14 C         138.4730  141.6790  160.5348 C.ar    1  UNL1        0.0899
     15 CL        138.4896  142.6189  159.3659 Cl      1  UNL1       -0.0793
     16 C         137.7607  144.2563  163.4052 C.3     1  UNL1        0.1086
     17 N         137.6196  143.5972  162.0652 N.pl3   1  UNL1       -0.3305
     18 H         137.2523  144.1026  161.3043 H       1  UNL1        0.1469
     19 C         139.7090  140.8873  169.5400 C.1     1  UNL1        0.1246
     20 N         140.0303  141.3943  170.9147 N.1     1  UNL1       -0.1891
     21 O         140.9631  142.1716  167.1363 O.3     1  UNL1       -0.4610
     22 C         142.4382  141.9182  167.2352 C.3     1  UNL1        0.1836
     23 C         143.1636  142.2018  168.5172 C.3     1  UNL1        0.0488
     24 C         143.1879  141.3812  166.0522 C.3     1  UNL1        0.1163
     25 N         143.2536  139.9016  165.8144 N.3     1  UNL1       -0.2673
     26 C         142.9512  138.9482  166.9323 C.3     1  UNL1        0.0898
     27 C         143.6216  139.3754  164.4588 C.3     1  UNL1        0.0898
@<TRIPOS>BOND
     1    16    17    1
     2    17     9    1
     3     9    10   ar
     4    10    11   ar
     5    11     7    1
     6     7     1    1
     7     1     2   ar
     8     2     3   ar
     9     3     4   ar
    10     4    19    1
    11    19    20    3
    12     4     5   ar
    13     5    21    1
    14    21    22    1
    15    22    23    1
    16    22    24    1
    17    24    25    1
    18    25    26    1
    19    25    27    1
    20     5     6   ar
    21    11    12   ar
    22    12    13   ar
    23    13    14   ar
    24    14    15    1
    25    14     9   ar
    26     6     1   ar
    27    17    18    1
    28     7     8    1
@<TRIPOS>MOLECULE
*****
 27 28 0 0 0
SMALL
GASTEIGER

@<TRIPOS>ATOM
      1 C         142.4691  141.4475  164.2157 C.ar    1  UNL1        0.1558
      2 C         143.0802  141.2049  162.8674 C.ar    1  UNL1        0.1342
      3 N         142.8383  142.1746  161.7489 N.ar    1  UNL1       -0.2263
      4 C         141.9854  143.3870  161.9786 C.ar    1  UNL1        0.2025
      5 C         141.3743  143.6296  163.3269 C.ar    1  UNL1        0.2543
      6 N         141.6162  142.6599  164.4454 N.ar    1  UNL1       -0.1931
      7 N         142.7109  140.4778  165.3343 N.pl3   1  UNL1       -0.2820
      8 H         143.5052  139.8964  165.3186 H       1  UNL1        0.1551
      9 C         141.2543  140.5132  169.0257 C.ar    1  UNL1        0.0597
     10 C         142.2226  140.5970  167.8833 C.ar    1  UNL1        0.0496
     11 C         141.7425  140.3940  166.4768 C.ar    1  UNL1        0.1345
     12 N         140.2941  140.1071  166.2127 N.ar    1  UNL1       -0.2281
     13 C         139.3258  140.0233  167.3552 C.ar    1  UNL1        0.1129
     14 C         139.8059  140.2264  168.7617 C.ar    1  UNL1        0.0899
     15 CL        138.8374  140.1425  169.9042 Cl      1  UNL1       -0.0793
     16 C         141.6523  142.0742  171.0641 C.3     1  UNL1        0.1086
     17 N         141.7343  140.7162  170.4323 N.pl3   1  UNL1       -0.3305
     18 H         142.1033  139.9582  170.9407 H       1  UNL1        0.1469
     19 C         141.7435  144.3567  160.8601 C.1     1  UNL1        0.1246
     20 N         141.5017  145.3265  159.7416 N.1     1  UNL1       -0.1891
     21 O         140.5214  144.8420  163.5566 O.3     1  UNL1       -0.4610
     22 C         139.0939  144.6837  163.9891 C.3     1  UNL1        0.1836
     23 C         138.7249  144.8511  165.4333 C.3     1  UNL1        0.0488
     24 C         138.0354  144.3579  162.9775 C.3     1  UNL1        0.1163
     25 N         137.9242  142.9658  162.4301 N.3     1  UNL1       -0.2673
     26 C         137.3526  141.8694  163.2792 C.3     1  UNL1        0.0898
     27 C         138.3845  142.6702  161.0334 C.3     1  UNL1        0.0898
@<TRIPOS>BOND
     1    16    17    1
     2    17     9    1
     3     9    10   ar
     4    10    11   ar
     5    11     7    1
     6     7     1    1
     7     1     2   ar
     8     2     3   ar
     9     3     4   ar
    10     4    19    1
    11    19    20    3
    12     4     5   ar
    13     5    21    1
    14    21    22    1
    15    22    23    1
    16    22    24    1
    17    24    25    1
    18    25    26    1
    19    25    27    1
    20     5     6   ar
    21    11    12   ar
    22    12    13   ar
    23    13    14   ar
    24    14    15    1
    25    14     9   ar
    26     6     1   ar
    27    17    18    1
    28     7     8    1
