@<TRIPOS>MOLECULE
*****
 24 27 0 0 0
SMALL
GASTEIGER

@<TRIPOS>ATOM
      1 N         143.5720  143.9230  171.4486 N.pl3   1  UNL1       -0.3375
      2 C         142.9481  143.1065  170.3559 C.ar    1  UNL1        0.1567
      3 N         143.6092  142.6989  169.0725 N.ar    1  UNL1       -0.2245
      4 C         142.6232  141.8947  168.2783 C.ar    1  UNL1        0.0889
      5 C         142.7181  141.2323  166.9357 C.ar    1  UNL1        0.0151
      6 C         141.5424  140.4803  166.3857 C.ar    1  UNL1       -0.0232
      7 C         140.2721  140.3907  167.1782 C.ar    1  UNL1       -0.0241
      8 C         140.1772  141.0530  168.5206 C.ar    1  UNL1        0.0035
      9 C         141.3527  141.8050  169.0707 C.ar    1  UNL1        0.0494
     10 S         141.5536  142.5540  170.3547 S.2     1  UNL1       -0.0520
     11 C         138.9921  139.6963  166.8180 C.3     1  UNL1        0.0434
     12 C         138.6666  138.9201  165.5763 C.3     1  UNL1        0.0771
     13 N         139.5405  138.6466  164.3884 N.3     1  UNL1       -0.2670
     14 C         140.9558  139.0817  164.1484 C.3     1  UNL1        0.0771
     15 C         141.8468  139.8977  165.0374 C.3     1  UNL1        0.0434
     16 H         144.4989  144.2420  171.3567 H       1  UNL1        0.1442
     17 H         143.0547  144.1401  172.2575 H       1  UNL1        0.1442
     18 C         138.9165  137.8300  163.2957 C.3     1  UNL1        0.1187
     19 C         138.8411  138.3764  161.9007 C.ar    1  UNL1        0.0752
     20 C         137.7596  139.3489  161.5336 C.ar    1  UNL1        0.0161
     21 C         137.6842  139.8952  160.1388 C.ar    1  UNL1        0.0028
     22 C         138.6902  139.4691  159.1109 C.ar    1  UNL1        0.0207
     23 C         139.7717  138.4967  159.4781 C.ar    1  UNL1        0.0985
     24 N         139.8472  137.9503  160.8729 N.ar    1  UNL1       -0.2468
@<TRIPOS>BOND
     1     1     2    1
     2     2     3   ar
     3     3     4   ar
     4     4     5   ar
     5     5     6   ar
     6     6     7   ar
     7     7     8   ar
     8     8     9   ar
     9     9    10   ar
    10     7    11    1
    11    11    12    1
    12    12    13    1
    13    13    18    1
    14    18    19    1
    15    19    20   ar
    16    20    21   ar
    17    21    22   ar
    18    22    23   ar
    19    23    24   ar
    20    13    14    1
    21    14    15    1
    22    10     2   ar
    23    24    19   ar
    24     9     4   ar
    25    15     6    1
    26     1    16    1
    27     1    17    1
@<TRIPOS>MOLECULE
*****
 24 27 0 0 0
SMALL
GASTEIGER

@<TRIPOS>ATOM
      1 N         143.8165  139.5756  171.4470 N.pl3   1  UNL1       -0.3375
      2 C         143.0439  140.0307  170.2445 C.ar    1  UNL1        0.1567
      3 N         142.6615  139.1814  169.0688 N.ar    1  UNL1       -0.2245
      4 C         141.8993  140.0409  168.1044 C.ar    1  UNL1        0.0889
      5 C         141.2745  139.7447  166.7732 C.ar    1  UNL1        0.0151
      6 C         140.5610  140.8293  166.0217 C.ar    1  UNL1       -0.0232
      7 C         140.4724  142.2099  166.6013 C.ar    1  UNL1       -0.0241
      8 C         141.0971  142.5061  167.9324 C.ar    1  UNL1        0.0035
      9 C         141.8106  141.4216  168.6840 C.ar    1  UNL1        0.0494
     10 S         142.5180  141.4152  170.0067 S.2     1  UNL1       -0.0520
     11 C         139.8130  143.4266  166.0226 C.3     1  UNL1        0.0434
     12 C         139.0794  143.5631  164.7212 C.3     1  UNL1        0.0771
     13 N         138.8242  142.5168  163.6774 N.3     1  UNL1       -0.2670
     14 C         139.2393  141.0753  163.6768 C.3     1  UNL1        0.0771
     15 C         140.0123  140.3243  164.7202 C.3     1  UNL1        0.0434
     16 H         144.1205  138.6415  171.5121 H       1  UNL1        0.1442
     17 H         144.0197  140.2110  172.1710 H       1  UNL1        0.1442
     18 C         138.0515  142.9719  162.4750 C.3     1  UNL1        0.1187
     19 C         138.7786  143.4352  161.2474 C.ar    1  UNL1        0.0752
     20 C         138.7241  142.6185  159.9904 C.ar    1  UNL1        0.0161
     21 C         139.4511  143.0818  158.7629 C.ar    1  UNL1        0.0028
     22 C         140.2327  144.3617  158.7924 C.ar    1  UNL1        0.0207
     23 C         140.2873  145.1784  160.0495 C.ar    1  UNL1        0.0985
     24 N         139.5603  144.7152  161.2769 N.ar    1  UNL1       -0.2468
@<TRIPOS>BOND
     1     1     2    1
     2     2     3   ar
     3     3     4   ar
     4     4     5   ar
     5     5     6   ar
     6     6     7   ar
     7     7     8   ar
     8     8     9   ar
     9     9    10   ar
    10     7    11    1
    11    11    12    1
    12    12    13    1
    13    13    18    1
    14    18    19    1
    15    19    20   ar
    16    20    21   ar
    17    21    22   ar
    18    22    23   ar
    19    23    24   ar
    20    13    14    1
    21    14    15    1
    22    10     2   ar
    23    24    19   ar
    24     9     4   ar
    25    15     6    1
    26     1    16    1
    27     1    17    1
@<TRIPOS>MOLECULE
*****
 24 27 0 0 0
SMALL
GASTEIGER

@<TRIPOS>ATOM
      1 N         143.3015  139.8527  171.0821 N.pl3   1  UNL1       -0.3375
      2 C         142.5711  139.7810  169.7740 C.ar    1  UNL1        0.1567
      3 N         143.1001  139.1920  168.4998 N.ar    1  UNL1       -0.2245
      4 C         142.0393  139.3326  167.4487 C.ar    1  UNL1        0.0889
      5 C         141.9991  138.9325  166.0036 C.ar    1  UNL1        0.0151
      6 C         140.7741  139.2083  165.1829 C.ar    1  UNL1       -0.0232
      7 C         139.5896  139.8841  165.8073 C.ar    1  UNL1       -0.0241
      8 C         139.6298  140.2842  167.2523 C.ar    1  UNL1        0.0035
      9 C         140.8547  140.0084  168.0731 C.ar    1  UNL1        0.0494
     10 S         141.1833  140.2855  169.5102 S.2     1  UNL1       -0.0520
     11 C         138.2798  140.2494  165.1738 C.3     1  UNL1        0.0434
     12 C         137.8313  140.0290  163.7594 C.3     1  UNL1        0.0771
     13 N         138.5817  139.3890  162.6294 N.3     1  UNL1       -0.2670
     14 C         139.9660  138.8112  162.6344 C.3     1  UNL1        0.0771
     15 C         140.9417  138.7308  163.7708 C.3     1  UNL1        0.0434
     16 H         144.2146  139.4922  171.1565 H       1  UNL1        0.1442
     17 H         142.8678  140.2604  171.8663 H       1  UNL1        0.1442
     18 C         137.8513  139.3172  161.3212 C.3     1  UNL1        0.1187
     19 C         138.0627  140.3808  160.2847 C.ar    1  UNL1        0.0752
     20 C         138.7138  141.6780  160.6633 C.ar    1  UNL1        0.0161
     21 C         138.9253  142.7415  159.6269 C.ar    1  UNL1        0.0028
     22 C         138.4857  142.5078  158.2119 C.ar    1  UNL1        0.0207
     23 C         137.8346  141.2106  157.8333 C.ar    1  UNL1        0.0985
     24 N         137.6232  140.1471  158.8697 N.ar    1  UNL1       -0.2468
@<TRIPOS>BOND
     1     1     2    1
     2     2     3   ar
     3     3     4   ar
     4     4     5   ar
     5     5     6   ar
     6     6     7   ar
     7     7     8   ar
     8     8     9   ar
     9     9    10   ar
    10     7    11    1
    11    11    12    1
    12    12    13    1
    13    13    18    1
    14    18    19    1
    15    19    20   ar
    16    20    21   ar
    17    21    22   ar
    18    22    23   ar
    19    23    24   ar
    20    13    14    1
    21    14    15    1
    22    10     2   ar
    23    24    19   ar
    24     9     4   ar
    25    15     6    1
    26     1    16    1
    27     1    17    1
@<TRIPOS>MOLECULE
*****
 24 27 0 0 0
SMALL
GASTEIGER

@<TRIPOS>ATOM
      1 N         143.5439  139.7927  171.3767 N.pl3   1  UNL1       -0.3375
      2 C         142.7779  140.1854  170.1482 C.ar    1  UNL1        0.1567
      3 N         141.5569  139.4977  169.6131 N.ar    1  UNL1       -0.2245
      4 C         141.1230  140.2220  168.3733 C.ar    1  UNL1        0.0889
      5 C         139.9833  139.9944  167.4250 C.ar    1  UNL1        0.0151
      6 C         139.7963  140.9022  166.2455 C.ar    1  UNL1       -0.0232
      7 C         140.7490  142.0374  166.0144 C.ar    1  UNL1       -0.0241
      8 C         141.8887  142.2650  166.9627 C.ar    1  UNL1        0.0035
      9 C         142.0757  141.3573  168.1422 C.ar    1  UNL1        0.0494
     10 S         143.0985  141.3346  169.2392 S.2     1  UNL1       -0.0520
     11 C         140.7443  143.0523  164.9098 C.3     1  UNL1        0.0434
     12 C         139.7855  143.1824  163.7635 C.3     1  UNL1        0.0771
     13 N         138.5949  142.3300  163.4388 N.3     1  UNL1       -0.2670
     14 C         138.0688  141.1367  164.1800 C.3     1  UNL1        0.0771
     15 C         138.6035  140.5013  165.4291 C.3     1  UNL1        0.0434
     16 H         143.2537  139.0186  171.9112 H       1  UNL1        0.1442
     17 H         144.3368  140.3092  171.6485 H       1  UNL1        0.1442
     18 C         137.8289  142.7226  162.2103 C.3     1  UNL1        0.1187
     19 C         138.1905  142.1312  160.8800 C.ar    1  UNL1        0.0752
     20 C         138.2375  140.6417  160.7093 C.ar    1  UNL1        0.0161
     21 C         138.5990  140.0503  159.3791 C.ar    1  UNL1        0.0028
     22 C         138.9135  140.9484  158.2196 C.ar    1  UNL1        0.0207
     23 C         138.8665  142.4380  158.3903 C.ar    1  UNL1        0.0985
     24 N         138.5049  143.0293  159.7205 N.ar    1  UNL1       -0.2468
@<TRIPOS>BOND
     1     1     2    1
     2     2     3   ar
     3     3     4   ar
     4     4     5   ar
     5     5     6   ar
     6     6     7   ar
     7     7     8   ar
     8     8     9   ar
     9     9    10   ar
    10     7    11    1
    11    11    12    1
    12    12    13    1
    13    13    18    1
    14    18    19    1
    15    19    20   ar
    16    20    21   ar
    17    21    22   ar
    18    22    23   ar
    19    23    24   ar
    20    13    14    1
    21    14    15    1
    22    10     2   ar
    23    24    19   ar
    24     9     4   ar
    25    15     6    1
    26     1    16    1
    27     1    17    1
@<TRIPOS>MOLECULE
*****
 24 27 0 0 0
SMALL
GASTEIGER

@<TRIPOS>ATOM
      1 N         139.5792  139.1203  171.6746 N.pl3   1  UNL1       -0.3375
      2 C         140.1076  139.8042  170.4486 C.ar    1  UNL1        0.1567
      3 N         139.3324  140.0944  169.1976 N.ar    1  UNL1       -0.2245
      4 C         140.2497  140.7875  168.2342 C.ar    1  UNL1        0.0889
      5 C         140.0362  141.3107  166.8446 C.ar    1  UNL1        0.0151
      6 C         141.1649  141.9721  166.1106 C.ar    1  UNL1       -0.0232
      7 C         142.5068  142.1104  166.7662 C.ar    1  UNL1       -0.0241
      8 C         142.7204  141.5873  168.1557 C.ar    1  UNL1        0.0035
      9 C         141.5918  140.9258  168.8897 C.ar    1  UNL1        0.0494
     10 S         141.5039  140.3181  170.2583 S.2     1  UNL1       -0.0520
     11 C         143.7568  142.7313  166.2164 C.3     1  UNL1        0.0434
     12 C         143.9732  143.3673  164.8752 C.3     1  UNL1        0.0771
     13 N         142.9933  143.5394  163.7527 N.3     1  UNL1       -0.2670
     14 C         141.5549  143.1181  163.6940 C.3     1  UNL1        0.0771
     15 C         140.7411  142.4206  164.7434 C.3     1  UNL1        0.0434
     16 H         138.6430  138.8173  171.7043 H       1  UNL1        0.1442
     17 H         140.1687  138.9745  172.4495 H       1  UNL1        0.1442
     18 C         143.5217  144.2233  162.5267 C.3     1  UNL1        0.1187
     19 C         143.3826  143.5690  161.1840 C.ar    1  UNL1        0.0752
     20 C         144.1439  142.3129  160.8794 C.ar    1  UNL1        0.0161
     21 C         144.0048  141.6586  159.5369 C.ar    1  UNL1        0.0028
     22 C         143.1045  142.2604  158.4989 C.ar    1  UNL1        0.0207
     23 C         142.3432  143.5164  158.8036 C.ar    1  UNL1        0.0985
     24 N         142.4822  144.1707  160.1461 N.ar    1  UNL1       -0.2468
@<TRIPOS>BOND
     1     1     2    1
     2     2     3   ar
     3     3     4   ar
     4     4     5   ar
     5     5     6   ar
     6     6     7   ar
     7     7     8   ar
     8     8     9   ar
     9     9    10   ar
    10     7    11    1
    11    11    12    1
    12    12    13    1
    13    13    18    1
    14    18    19    1
    15    19    20   ar
    16    20    21   ar
    17    21    22   ar
    18    22    23   ar
    19    23    24   ar
    20    13    14    1
    21    14    15    1
    22    10     2   ar
    23    24    19   ar
    24     9     4   ar
    25    15     6    1
    26     1    16    1
    27     1    17    1
@<TRIPOS>MOLECULE
*****
 24 27 0 0 0
SMALL
GASTEIGER

@<TRIPOS>ATOM
      1 N         140.3485  142.5070  171.5766 N.pl3   1  UNL1       -0.3375
      2 C         140.1787  141.9724  170.1854 C.ar    1  UNL1        0.1567
      3 N         140.5823  142.6670  168.9185 N.ar    1  UNL1       -0.2245
      4 C         140.2285  141.7733  167.7670 C.ar    1  UNL1        0.0889
      5 C         140.3926  141.9338  166.2847 C.ar    1  UNL1        0.0151
      6 C         139.9344  140.8473  165.3574 C.ar    1  UNL1       -0.0232
      7 C         139.3123  139.6005  165.9124 C.ar    1  UNL1       -0.0241
      8 C         139.1482  139.4399  167.3947 C.ar    1  UNL1        0.0035
      9 C         139.6063  140.5263  168.3221 C.ar    1  UNL1        0.0494
     10 S         139.5756  140.6494  169.8167 S.2     1  UNL1       -0.0520
     11 C         138.7916  138.4051  165.1708 C.3     1  UNL1        0.0434
     12 C         138.7645  138.1614  163.6909 C.3     1  UNL1        0.0771
     13 N         139.2514  139.0529  162.5873 N.3     1  UNL1       -0.2670
     14 C         139.8857  140.4083  162.6908 C.3     1  UNL1        0.0771
     15 C         140.1896  141.2069  163.9236 C.3     1  UNL1        0.0434
     16 H         140.7579  143.3911  171.7176 H       1  UNL1        0.1442
     17 H         140.0506  141.9736  172.3486 H       1  UNL1        0.1442
     18 C         139.0816  138.5184  161.1961 C.3     1  UNL1        0.1187
     19 C         140.2724  138.3836  160.2938 C.ar    1  UNL1        0.0752
     20 C         140.1392  138.6731  158.8280 C.ar    1  UNL1        0.0161
     21 C         141.3299  138.5383  157.9258 C.ar    1  UNL1        0.0028
     22 C         142.6537  138.1140  158.4893 C.ar    1  UNL1        0.0207
     23 C         142.7868  137.8246  159.9551 C.ar    1  UNL1        0.0985
     24 N         141.5962  137.9593  160.8573 N.ar    1  UNL1       -0.2468
@<TRIPOS>BOND
     1     1     2    1
     2     2     3   ar
     3     3     4   ar
     4     4     5   ar
     5     5     6   ar
     6     6     7   ar
     7     7     8   ar
     8     8     9   ar
     9     9    10   ar
    10     7    11    1
    11    11    12    1
    12    12    13    1
    13    13    18    1
    14    18    19    1
    15    19    20   ar
    16    20    21   ar
    17    21    22   ar
    18    22    23   ar
    19    23    24   ar
    20    13    14    1
    21    14    15    1
    22    10     2   ar
    23    24    19   ar
    24     9     4   ar
    25    15     6    1
    26     1    16    1
    27     1    17    1
@<TRIPOS>MOLECULE
*****
 24 27 0 0 0
SMALL
GASTEIGER

@<TRIPOS>ATOM
      1 N         140.5527  140.4380  171.6781 N.pl3   1  UNL1       -0.3375
      2 C         140.4642  140.1903  170.2014 C.ar    1  UNL1        0.1567
      3 N         139.2035  139.9773  169.4170 N.ar    1  UNL1       -0.2245
      4 C         139.5810  139.7675  167.9806 C.ar    1  UNL1        0.0889
      5 C         138.7573  139.5114  166.7534 C.ar    1  UNL1        0.0151
      6 C         139.4278  139.3386  165.4227 C.ar    1  UNL1       -0.0232
      7 C         140.9218  139.4219  165.3193 C.ar    1  UNL1       -0.0241
      8 C         141.7455  139.6781  166.5464 C.ar    1  UNL1        0.0035
      9 C         141.0751  139.8509  167.8771 C.ar    1  UNL1        0.0494
     10 S         141.6209  140.1122  169.2496 S.2     1  UNL1       -0.0520
     11 C         141.7843  139.2802  164.1001 C.3     1  UNL1        0.0434
     12 C         141.3655  139.0202  162.6834 C.3     1  UNL1        0.0771
     13 N         139.9810  138.8377  162.1360 N.3     1  UNL1       -0.2670
     14 C         138.6732  138.8701  162.8699 C.3     1  UNL1        0.0771
     15 C         138.4270  139.0930  164.3327 C.3     1  UNL1        0.0434
     16 H         139.7325  140.4719  172.2216 H       1  UNL1        0.1442
     17 H         141.4310  140.5666  172.1039 H       1  UNL1        0.1442
     18 C         139.8925  138.5900  160.6592 C.3     1  UNL1        0.1187
     19 C         139.5729  139.7208  159.7268 C.ar    1  UNL1        0.0752
     20 C         140.5886  140.7958  159.4758 C.ar    1  UNL1        0.0161
     21 C         140.2691  141.9265  158.5435 C.ar    1  UNL1        0.0028
     22 C         138.9339  141.9824  157.8622 C.ar    1  UNL1        0.0207
     23 C         137.9183  140.9074  158.1132 C.ar    1  UNL1        0.0985
     24 N         138.2377  139.7767  159.0455 N.ar    1  UNL1       -0.2468
@<TRIPOS>BOND
     1     1     2    1
     2     2     3   ar
     3     3     4   ar
     4     4     5   ar
     5     5     6   ar
     6     6     7   ar
     7     7     8   ar
     8     8     9   ar
     9     9    10   ar
    10     7    11    1
    11    11    12    1
    12    12    13    1
    13    13    18    1
    14    18    19    1
    15    19    20   ar
    16    20    21   ar
    17    21    22   ar
    18    22    23   ar
    19    23    24   ar
    20    13    14    1
    21    14    15    1
    22    10     2   ar
    23    24    19   ar
    24     9     4   ar
    25    15     6    1
    26     1    16    1
    27     1    17    1
@<TRIPOS>MOLECULE
*****
 24 27 0 0 0
SMALL
GASTEIGER

@<TRIPOS>ATOM
      1 N         142.2149  140.0750  170.9281 N.pl3   1  UNL1       -0.3375
      2 C         141.9777  140.8146  169.6449 C.ar    1  UNL1        0.1567
      3 N         142.9513  140.9492  168.5117 N.ar    1  UNL1       -0.2245
      4 C         142.3004  141.7672  167.4361 C.ar    1  UNL1        0.0889
      5 C         142.7829  142.2222  166.0906 C.ar    1  UNL1        0.0151
      6 C         141.8894  143.0483  165.2134 C.ar    1  UNL1       -0.0232
      7 C         140.5136  143.4193  165.6818 C.ar    1  UNL1       -0.0241
      8 C         140.0311  142.9644  167.0272 C.ar    1  UNL1        0.0035
      9 C         140.9245  142.1383  167.9044 C.ar    1  UNL1        0.0494
     10 S         140.7251  141.5495  169.2695 S.2     1  UNL1       -0.0520
     11 C         139.4702  144.2290  164.9705 C.3     1  UNL1        0.0434
     12 C         139.5450  144.8675  163.6151 C.3     1  UNL1        0.0771
     13 N         140.6816  144.8540  162.6366 N.3     1  UNL1       -0.2670
     14 C         142.0242  144.1988  162.7713 C.3     1  UNL1        0.0771
     15 C         142.5617  143.3952  163.9182 C.3     1  UNL1        0.0434
     16 H         143.0748  139.6213  171.0831 H       1  UNL1        0.1442
     17 H         141.5108  140.0432  171.6154 H       1  UNL1        0.1442
     18 C         140.4444  145.5936  161.3533 C.3     1  UNL1        0.1187
     19 C         140.7312  144.9281  160.0399 C.ar    1  UNL1        0.0752
     20 C         139.9143  143.7484  159.6027 C.ar    1  UNL1        0.0161
     21 C         140.2011  143.0829  158.2895 C.ar    1  UNL1        0.0028
     22 C         141.3047  143.5971  157.4133 C.ar    1  UNL1        0.0207
     23 C         142.1216  144.7768  157.8504 C.ar    1  UNL1        0.0985
     24 N         141.8348  145.4423  159.1637 N.ar    1  UNL1       -0.2468
@<TRIPOS>BOND
     1     1     2    1
     2     2     3   ar
     3     3     4   ar
     4     4     5   ar
     5     5     6   ar
     6     6     7   ar
     7     7     8   ar
     8     8     9   ar
     9     9    10   ar
    10     7    11    1
    11    11    12    1
    12    12    13    1
    13    13    18    1
    14    18    19    1
    15    19    20   ar
    16    20    21   ar
    17    21    22   ar
    18    22    23   ar
    19    23    24   ar
    20    13    14    1
    21    14    15    1
    22    10     2   ar
    23    24    19   ar
    24     9     4   ar
    25    15     6    1
    26     1    16    1
    27     1    17    1
@<TRIPOS>MOLECULE
*****
 24 27 0 0 0
SMALL
GASTEIGER

@<TRIPOS>ATOM
      1 N         142.5720  145.2970  156.4847 N.pl3   1  UNL1       -0.3375
      2 C         142.2768  144.7818  157.8622 C.ar    1  UNL1        0.1567
      3 N         141.7420  145.5874  159.0091 N.ar    1  UNL1       -0.2245
      4 C         141.5992  144.6741  160.1903 C.ar    1  UNL1        0.0889
      5 C         141.1203  144.9130  161.5916 C.ar    1  UNL1        0.0151
      6 C         141.0879  143.7818  162.5762 C.ar    1  UNL1       -0.0232
      7 C         141.5344  142.4119  162.1595 C.ar    1  UNL1       -0.0241
      8 C         142.0133  142.1729  160.7583 C.ar    1  UNL1        0.0035
      9 C         142.0458  143.3040  159.7737 C.ar    1  UNL1        0.0494
     10 S         142.4645  143.3707  158.3348 S.2     1  UNL1       -0.0520
     11 C         141.5820  141.1548  162.9767 C.3     1  UNL1        0.0434
     12 C         141.1948  140.9575  164.4125 C.3     1  UNL1        0.0771
     13 N         140.6644  141.9683  165.3854 N.3     1  UNL1       -0.2670
     14 C         140.3902  143.4262  165.1632 C.3     1  UNL1        0.0771
     15 C         140.5787  144.2333  163.9130 C.3     1  UNL1        0.0434
     16 H         142.4151  146.2447  156.2695 H       1  UNL1        0.1442
     17 H         142.9227  144.6873  155.7959 H       1  UNL1        0.1442
     18 C         140.3692  141.4532  166.7629 C.3     1  UNL1        0.1187
     19 C         141.1271  141.9876  167.9420 C.ar    1  UNL1        0.0752
     20 C         140.4889  142.9985  168.8481 C.ar    1  UNL1        0.0161
     21 C         141.2467  143.5329  170.0271 C.ar    1  UNL1        0.0028
     22 C         142.6426  143.0565  170.3001 C.ar    1  UNL1        0.0207
     23 C         143.2807  142.0456  169.3939 C.ar    1  UNL1        0.0985
     24 N         142.5230  141.5112  168.2149 N.ar    1  UNL1       -0.2468
@<TRIPOS>BOND
     1     1     2    1
     2     2     3   ar
     3     3     4   ar
     4     4     5   ar
     5     5     6   ar
     6     6     7   ar
     7     7     8   ar
     8     8     9   ar
     9     9    10   ar
    10     7    11    1
    11    11    12    1
    12    12    13    1
    13    13    18    1
    14    18    19    1
    15    19    20   ar
    16    20    21   ar
    17    21    22   ar
    18    22    23   ar
    19    23    24   ar
    20    13    14    1
    21    14    15    1
    22    10     2   ar
    23    24    19   ar
    24     9     4   ar
    25    15     6    1
    26     1    16    1
    27     1    17    1
