@<TRIPOS>MOLECULE
*****
 45 49 0 0 0
SMALL
GASTEIGER

@<TRIPOS>ATOM
      1 C         143.9613  141.2048  164.3882 C.ar    1  UNL1        0.0691
      2 C         143.9684  139.8344  163.7782 C.ar    1  UNL1        0.0857
      3 S         143.3520  138.8856  164.7629 S.2     1  UNL1       -0.0753
      4 C         142.9639  139.6695  165.9815 C.ar    1  UNL1        0.0209
      5 C         143.3405  141.1029  165.7499 C.ar    1  UNL1       -0.0114
      6 C         143.0695  142.1300  166.8089 C.3     1  UNL1        0.0441
      7 C         142.4218  141.7238  168.0994 C.3     1  UNL1        0.0771
      8 N         142.0452  140.2905  168.3310 N.3     1  UNL1       -0.2682
      9 C         142.3163  139.2633  167.2720 C.3     1  UNL1        0.1054
     10 N         144.4989  139.4759  162.4217 N.am    1  UNL1       -0.2629
     11 C         143.5697  139.4119  161.2459 C.2     1  UNL1        0.3085
     12 O         142.1099  139.7064  161.4267 O.2     1  UNL1       -0.2521
     13 N         144.1001  139.0534  159.8894 N.am    1  UNL1       -0.2680
     14 H         145.4569  139.2826  162.3031 H       1  UNL1        0.1569
     15 H         145.0581  138.8601  159.7708 H       1  UNL1        0.1564
     16 C         143.1708  138.9893  158.7137 C.ar    1  UNL1        0.0516
     17 C         142.5291  137.6875  158.3349 C.ar    1  UNL1        0.0156
     18 C         141.5998  137.6235  157.1591 C.ar    1  UNL1        0.0127
     19 C         141.3122  138.8614  156.3621 C.ar    1  UNL1        0.0578
     20 CL        140.3830  138.7974  155.1864 Cl      1  UNL1       -0.0822
     21 C         141.9540  140.1632  156.7410 C.ar    1  UNL1        0.0127
     22 C         142.8832  140.2272  157.9167 C.ar    1  UNL1        0.0156
     23 N         143.9621  143.7949  164.1837 N.am    1  UNL1       -0.3253
     24 C         144.4834  142.4572  163.7488 C.2     1  UNL1        0.2442
     25 O         145.5268  142.3722  162.6746 O.2     1  UNL1       -0.2703
     26 H         144.3048  144.6169  163.7641 H       1  UNL1        0.1453
     27 H         143.2773  143.8507  164.8888 H       1  UNL1        0.1453
     28 C         141.3975  139.8843  169.6216 C.3     1  UNL1        0.0742
     29 C         140.0213  140.3772  169.9578 C.3     1  UNL1        0.0386
     30 C         138.8674  140.0529  169.0558 C.3     1  UNL1        0.0908
     31 N         139.1173  139.6602  167.6299 N.am    1  UNL1       -0.3043
     32 C         138.2239  138.6584  166.9604 C.2     1  UNL1        0.2228
     33 O         137.0807  138.0494  167.7168 O.2     1  UNL1       -0.2751
     34 H         139.8676  140.0599  167.1335 H       1  UNL1        0.1494
     35 C         138.4738  138.2656  165.5344 C.3     1  UNL1        0.0898
     36 C         139.2855  139.1572  164.6421 C.3     1  UNL1        0.0375
     37 C         138.6511  140.3567  164.0029 C.2     1  UNL1       -0.0014
     38 C         137.7310  140.3415  162.8184 C.2     1  UNL1        0.0942
     39 N         137.3367  141.7576  162.5194 N.2     1  UNL1       -0.2482
     40 C         138.0132  142.6480  163.5193 C.2     1  UNL1        0.0631
     41 C         137.9944  144.1353  163.7133 C.3     1  UNL1        0.0717
     42 C         138.7879  144.7568  164.8241 C.2     1  UNL1       -0.0198
     43 C         139.6003  143.8911  165.7410 C.2     1  UNL1       -0.0042
     44 C         139.6190  142.4038  165.5469 C.2     1  UNL1        0.0006
     45 C         138.8255  141.7823  164.4361 C.2     1  UNL1        0.0114
@<TRIPOS>BOND
     1    23    24   am
     2    24    25    2
     3    24     1    1
     4     1     2   ar
     5     2    10    1
     6    10    11   am
     7    11    12    2
     8    11    13   am
     9    13    16    1
    10    16    17   ar
    11    17    18   ar
    12    18    19   ar
    13    19    20    1
    14    19    21   ar
    15    21    22   ar
    16     2     3   ar
    17     3     4   ar
    18     4     5   ar
    19     5     6    1
    20     6     7    1
    21     7     8    1
    22     8    28    1
    23    28    29    1
    24    29    30    1
    25    30    31    1
    26    31    32   am
    27    32    33    2
    28    32    35    1
    29    35    36    1
    30    36    37    1
    31    37    38    2
    32    38    39    1
    33    39    40    2
    34    40    41    1
    35    41    42    1
    36    42    43    2
    37    43    44    1
    38    44    45    2
    39     8     9    1
    40     5     1   ar
    41    45    37    1
    42    22    16   ar
    43     9     4    1
    44    45    40    1
    45    23    26    1
    46    23    27    1
    47    10    14    1
    48    13    15    1
    49    31    34    1
@<TRIPOS>MOLECULE
*****
 45 49 0 0 0
SMALL
GASTEIGER

@<TRIPOS>ATOM
      1 C         141.9581  139.4244  161.0470 C.ar    1  UNL1        0.0691
      2 C         142.1854  140.0125  159.6860 C.ar    1  UNL1        0.0857
      3 S         141.2874  141.2052  159.5406 S.2     1  UNL1       -0.0753
      4 C         140.5050  141.3541  160.8117 C.ar    1  UNL1        0.0209
      5 C         140.9196  140.2535  161.7428 C.ar    1  UNL1       -0.0114
      6 C         140.2978  140.1485  163.1038 C.3     1  UNL1        0.0441
      7 C         139.2616  141.1441  163.5337 C.3     1  UNL1        0.0771
      8 N         138.8470  142.2447  162.6027 N.3     1  UNL1       -0.2682
      9 C         139.4688  142.3497  161.2417 C.3     1  UNL1        0.1054
     10 N         143.1427  139.4984  158.6520 N.am    1  UNL1       -0.2629
     11 C         142.7677  138.3203  157.8026 C.2     1  UNL1        0.3085
     12 O         141.4353  137.6563  157.9873 O.2     1  UNL1       -0.2521
     13 N         143.7249  137.8061  156.7686 N.am    1  UNL1       -0.2680
     14 H         144.0172  139.9341  158.5308 H       1  UNL1        0.1569
     15 H         144.5994  138.2418  156.6474 H       1  UNL1        0.1564
     16 C         143.3498  136.6280  155.9192 C.ar    1  UNL1        0.0516
     17 C         142.5996  136.8362  154.6372 C.ar    1  UNL1        0.0156
     18 C         142.2245  135.6581  153.7878 C.ar    1  UNL1        0.0127
     19 C         142.5997  134.2717  154.2205 C.ar    1  UNL1        0.0578
     20 CL        142.2246  133.0936  153.3712 Cl      1  UNL1       -0.0822
     21 C         143.3500  134.0635  155.5026 C.ar    1  UNL1        0.0127
     22 C         143.7250  135.2416  156.3519 C.ar    1  UNL1        0.0156
     23 N         141.8887  137.2572  162.4785 N.am    1  UNL1       -0.3253
     24 C         142.6481  138.2188  161.6130 C.2     1  UNL1        0.2442
     25 O         144.0975  137.9746  161.3137 O.2     1  UNL1       -0.2703
     26 H         142.3416  136.4659  162.8499 H       1  UNL1        0.1453
     27 H         140.9374  137.4175  162.6750 H       1  UNL1        0.1453
     28 C         137.8107  143.2403  163.0327 C.3     1  UNL1        0.0742
     29 C         137.8681  143.8360  164.4081 C.3     1  UNL1        0.0386
     30 C         138.9918  144.7574  164.7802 C.3     1  UNL1        0.0908
     31 N         140.3987  144.4236  164.3814 N.am    1  UNL1       -0.3043
     32 C         141.0189  145.0909  163.1898 C.2     1  UNL1        0.2228
     33 O         140.2321  146.0921  162.3970 O.2     1  UNL1       -0.2751
     34 H         140.9151  143.7665  164.9018 H       1  UNL1        0.1494
     35 C         142.4259  144.7571  162.7910 C.3     1  UNL1        0.0898
     36 C         143.3883  144.2250  163.8110 C.3     1  UNL1        0.0375
     37 C         143.9482  142.8413  163.6637 C.2     1  UNL1       -0.0014
     38 C         144.9490  142.3997  162.6373 C.2     1  UNL1        0.0942
     39 N         145.2249  140.9415  162.8562 N.2     1  UNL1       -0.2482
     40 C         144.3946  140.4820  164.0180 C.2     1  UNL1        0.0631
     41 C         144.2551  139.1462  164.6859 C.3     1  UNL1        0.0717
     42 C         143.3267  138.9844  165.8527 C.2     1  UNL1       -0.0198
     43 C         142.5376  140.1585  166.3518 C.2     1  UNL1       -0.0042
     44 C         142.6771  141.4943  165.6840 C.2     1  UNL1        0.0006
     45 C         143.6056  141.6561  164.5170 C.2     1  UNL1        0.0114
@<TRIPOS>BOND
     1    23    24   am
     2    24    25    2
     3    24     1    1
     4     1     2   ar
     5     2    10    1
     6    10    11   am
     7    11    12    2
     8    11    13   am
     9    13    16    1
    10    16    17   ar
    11    17    18   ar
    12    18    19   ar
    13    19    20    1
    14    19    21   ar
    15    21    22   ar
    16     2     3   ar
    17     3     4   ar
    18     4     5   ar
    19     5     6    1
    20     6     7    1
    21     7     8    1
    22     8    28    1
    23    28    29    1
    24    29    30    1
    25    30    31    1
    26    31    32   am
    27    32    33    2
    28    32    35    1
    29    35    36    1
    30    36    37    1
    31    37    38    2
    32    38    39    1
    33    39    40    2
    34    40    41    1
    35    41    42    1
    36    42    43    2
    37    43    44    1
    38    44    45    2
    39     8     9    1
    40     5     1   ar
    41    45    37    1
    42    22    16   ar
    43     9     4    1
    44    45    40    1
    45    23    26    1
    46    23    27    1
    47    10    14    1
    48    13    15    1
    49    31    34    1
@<TRIPOS>MOLECULE
*****
 45 49 0 0 0
SMALL
GASTEIGER

@<TRIPOS>ATOM
      1 C         143.2031  140.1449  160.8984 C.ar    1  UNL1        0.0691
      2 C         143.1022  140.4371  159.4306 C.ar    1  UNL1        0.0857
      3 S         142.3069  141.6977  159.2626 S.2     1  UNL1       -0.0753
      4 C         141.9162  142.1847  160.6265 C.ar    1  UNL1        0.0209
      5 C         142.4701  141.2250  161.6375 C.ar    1  UNL1       -0.0114
      6 C         142.2356  141.4585  163.1005 C.3     1  UNL1        0.0441
      7 C         141.4471  142.6518  163.5525 C.3     1  UNL1        0.0771
      8 N         140.8932  143.6115  162.5415 N.3     1  UNL1       -0.2682
      9 C         141.1278  143.3780  161.0785 C.3     1  UNL1        0.1054
     10 N         143.6928  139.6133  158.3249 N.am    1  UNL1       -0.2629
     11 C         143.0118  138.3519  157.8835 C.2     1  UNL1        0.3085
     12 O         141.7400  137.9142  158.5477 O.2     1  UNL1       -0.2521
     13 N         143.6025  137.5280  156.7778 N.am    1  UNL1       -0.2680
     14 H         144.5275  139.9005  157.8890 H       1  UNL1        0.1569
     15 H         144.4371  137.8153  156.3419 H       1  UNL1        0.1564
     16 C         142.9213  136.2666  156.3364 C.ar    1  UNL1        0.0516
     17 C         141.7958  136.3287  155.3468 C.ar    1  UNL1        0.0156
     18 C         141.1147  135.0673  154.9053 C.ar    1  UNL1        0.0127
     19 C         141.5592  133.7436  155.4535 C.ar    1  UNL1        0.0578
     20 CL        140.8781  132.4822  155.0121 Cl      1  UNL1       -0.0822
     21 C         142.6847  133.6815  156.4431 C.ar    1  UNL1        0.0127
     22 C         143.3658  134.9429  156.8845 C.ar    1  UNL1        0.0156
     23 N         144.7264  139.1697  162.7636 N.am    1  UNL1       -0.3253
     24 C         143.9124  138.9776  161.5183 C.2     1  UNL1        0.2442
     25 O         143.8078  137.6182  160.8930 O.2     1  UNL1       -0.2703
     26 H         145.1919  138.4036  163.1704 H       1  UNL1        0.1453
     27 H         144.7950  140.0619  163.1740 H       1  UNL1        0.1453
     28 C         140.1047  144.8049  162.9936 C.3     1  UNL1        0.0742
     29 C         138.6506  144.9194  162.6437 C.3     1  UNL1        0.0386
     30 C         137.6999  143.8217  163.0200 C.3     1  UNL1        0.0908
     31 N         137.9025  142.4366  162.4813 N.am    1  UNL1       -0.3043
     32 C         138.0380  141.2777  163.4239 C.2     1  UNL1        0.2228
     33 O         137.9708  141.5040  164.9052 O.2     1  UNL1       -0.2751
     34 H         137.9466  142.2881  161.5091 H       1  UNL1        0.1494
     35 C         138.2406  139.8925  162.8853 C.3     1  UNL1        0.0898
     36 C         138.5705  138.7656  163.8187 C.3     1  UNL1        0.0375
     37 C         140.0021  138.4467  164.1329 C.2     1  UNL1       -0.0014
     38 C         140.9334  137.6386  163.2787 C.2     1  UNL1        0.0942
     39 N         142.2607  137.5723  163.9744 N.2     1  UNL1       -0.2482
     40 C         142.1498  138.3396  165.2586 C.2     1  UNL1        0.0631
     41 C         143.1394  138.6160  166.3513 C.3     1  UNL1        0.0717
     42 C         142.7333  139.4327  167.5420 C.2     1  UNL1       -0.0198
     43 C         141.3374  139.9731  167.6401 C.2     1  UNL1       -0.0042
     44 C         140.3477  139.6967  166.5473 C.2     1  UNL1        0.0006
     45 C         140.7539  138.8800  165.3565 C.2     1  UNL1        0.0114
@<TRIPOS>BOND
     1    23    24   am
     2    24    25    2
     3    24     1    1
     4     1     2   ar
     5     2    10    1
     6    10    11   am
     7    11    12    2
     8    11    13   am
     9    13    16    1
    10    16    17   ar
    11    17    18   ar
    12    18    19   ar
    13    19    20    1
    14    19    21   ar
    15    21    22   ar
    16     2     3   ar
    17     3     4   ar
    18     4     5   ar
    19     5     6    1
    20     6     7    1
    21     7     8    1
    22     8    28    1
    23    28    29    1
    24    29    30    1
    25    30    31    1
    26    31    32   am
    27    32    33    2
    28    32    35    1
    29    35    36    1
    30    36    37    1
    31    37    38    2
    32    38    39    1
    33    39    40    2
    34    40    41    1
    35    41    42    1
    36    42    43    2
    37    43    44    1
    38    44    45    2
    39     8     9    1
    40     5     1   ar
    41    45    37    1
    42    22    16   ar
    43     9     4    1
    44    45    40    1
    45    23    26    1
    46    23    27    1
    47    10    14    1
    48    13    15    1
    49    31    34    1
@<TRIPOS>MOLECULE
*****
 45 49 0 0 0
SMALL
GASTEIGER

@<TRIPOS>ATOM
      1 C         143.9285  140.2599  162.4254 C.ar    1  UNL1        0.0691
      2 C         143.4995  139.0887  163.2586 C.ar    1  UNL1        0.0857
      3 S         142.9084  138.0593  162.3417 S.2     1  UNL1       -0.0753
      4 C         142.9720  138.5942  160.9417 C.ar    1  UNL1        0.0209
      5 C         143.6026  139.9543  160.9935 C.ar    1  UNL1       -0.0114
      6 C         143.7984  140.7387  159.7300 C.3     1  UNL1        0.0441
      7 C         143.3637  140.1631  158.4149 C.3     1  UNL1        0.0771
      8 N         142.7332  138.8030  158.3632 N.3     1  UNL1       -0.2682
      9 C         142.5374  138.0186  159.6266 C.3     1  UNL1        0.1054
     10 N         143.6374  138.9682  164.7474 N.am    1  UNL1       -0.2629
     11 C         142.7883  139.8132  165.6501 C.2     1  UNL1        0.3085
     12 O         141.8013  140.7789  165.0641 O.2     1  UNL1       -0.2521
     13 N         142.9262  139.6926  167.1389 N.am    1  UNL1       -0.2680
     14 H         144.2852  138.3344  165.1320 H       1  UNL1        0.1569
     15 H         143.5740  139.0589  167.5235 H       1  UNL1        0.1564
     16 C         142.0771  140.5377  168.0416 C.ar    1  UNL1        0.0516
     17 C         142.5809  141.8686  168.5160 C.ar    1  UNL1        0.0156
     18 C         141.7318  142.7136  169.4187 C.ar    1  UNL1        0.0127
     19 C         140.3788  142.2279  169.8470 C.ar    1  UNL1        0.0578
     20 CL        139.5297  143.0729  170.7497 Cl      1  UNL1       -0.0822
     21 C         139.8750  140.8970  169.3727 C.ar    1  UNL1        0.0127
     22 C         140.7241  140.0519  168.4700 C.ar    1  UNL1        0.0156
     23 N         143.7184  142.6462  163.4311 N.am    1  UNL1       -0.3253
     24 C         144.5708  141.5162  162.9346 C.2     1  UNL1        0.2442
     25 O         146.0653  141.6424  162.9474 O.2     1  UNL1       -0.2703
     26 H         144.1399  143.4708  163.7653 H       1  UNL1        0.1453
     27 H         142.7374  142.5634  163.4228 H       1  UNL1        0.1453
     28 C         142.2985  138.2274  157.0479 C.3     1  UNL1        0.0742
     29 C         141.1941  138.8811  156.2714 C.3     1  UNL1        0.0386
     30 C         139.8001  138.9045  156.8250 C.3     1  UNL1        0.0908
     31 N         139.5590  139.3697  158.2304 N.am    1  UNL1       -0.3043
     32 C         139.7045  140.8222  158.5751 C.2     1  UNL1        0.2228
     33 O         140.0912  141.8097  157.5142 O.2     1  UNL1       -0.2751
     34 H         139.3052  138.7216  158.9267 H       1  UNL1        0.1494
     35 C         139.4634  141.2875  159.9806 C.3     1  UNL1        0.0898
     36 C         138.1733  140.9547  160.6698 C.3     1  UNL1        0.0375
     37 C         138.0639  141.0851  162.1601 C.2     1  UNL1       -0.0014
     38 C         137.6425  142.3146  162.9090 C.2     1  UNL1        0.0942
     39 N         137.6748  141.9982  164.3750 N.2     1  UNL1       -0.2482
     40 C         138.1162  140.5732  164.5320 C.2     1  UNL1        0.0631
     41 C         138.3302  139.7165  165.7446 C.3     1  UNL1        0.0717
     42 C         138.7846  138.2957  165.5884 C.2     1  UNL1       -0.0198
     43 C         139.0251  137.7313  164.2195 C.2     1  UNL1       -0.0042
     44 C         138.8111  138.5879  163.0069 C.2     1  UNL1        0.0006
     45 C         138.3566  140.0089  163.1632 C.2     1  UNL1        0.0114
@<TRIPOS>BOND
     1    23    24   am
     2    24    25    2
     3    24     1    1
     4     1     2   ar
     5     2    10    1
     6    10    11   am
     7    11    12    2
     8    11    13   am
     9    13    16    1
    10    16    17   ar
    11    17    18   ar
    12    18    19   ar
    13    19    20    1
    14    19    21   ar
    15    21    22   ar
    16     2     3   ar
    17     3     4   ar
    18     4     5   ar
    19     5     6    1
    20     6     7    1
    21     7     8    1
    22     8    28    1
    23    28    29    1
    24    29    30    1
    25    30    31    1
    26    31    32   am
    27    32    33    2
    28    32    35    1
    29    35    36    1
    30    36    37    1
    31    37    38    2
    32    38    39    1
    33    39    40    2
    34    40    41    1
    35    41    42    1
    36    42    43    2
    37    43    44    1
    38    44    45    2
    39     8     9    1
    40     5     1   ar
    41    45    37    1
    42    22    16   ar
    43     9     4    1
    44    45    40    1
    45    23    26    1
    46    23    27    1
    47    10    14    1
    48    13    15    1
    49    31    34    1
@<TRIPOS>MOLECULE
*****
 45 49 0 0 0
SMALL
GASTEIGER

@<TRIPOS>ATOM
      1 C         142.2007  139.5083  162.6841 C.ar    1  UNL1        0.0691
      2 C         141.8476  140.7472  161.9158 C.ar    1  UNL1        0.0857
      3 S         141.8571  141.9036  162.8713 S.2     1  UNL1       -0.0753
      4 C         142.2162  141.3793  164.2300 C.ar    1  UNL1        0.0209
      5 C         142.4286  139.8989  164.1144 C.ar    1  UNL1       -0.0114
      6 C         142.8020  139.0979  165.3263 C.3     1  UNL1        0.0441
      7 C         142.9630  139.7772  166.6539 C.3     1  UNL1        0.0771
      8 N         142.7506  141.2576  166.7695 N.3     1  UNL1       -0.2682
      9 C         142.3772  142.0586  165.5576 C.3     1  UNL1        0.1054
     10 N         141.5390  140.8175  160.4496 N.am    1  UNL1       -0.2629
     11 C         142.6532  140.9513  159.4543 C.2     1  UNL1        0.3085
     12 O         144.0760  141.0148  159.9252 O.2     1  UNL1       -0.2521
     13 N         142.3446  141.0216  157.9881 N.am    1  UNL1       -0.2680
     14 H         140.6052  140.7759  160.1405 H       1  UNL1        0.1569
     15 H         141.4108  140.9799  157.6790 H       1  UNL1        0.1564
     16 C         143.4589  141.1554  156.9927 C.ar    1  UNL1        0.0516
     17 C         144.3128  139.9683  156.6588 C.ar    1  UNL1        0.0156
     18 C         145.4271  140.1021  155.6635 C.ar    1  UNL1        0.0127
     19 C         145.6873  141.4230  155.0021 C.ar    1  UNL1        0.0578
     20 CL        146.8015  141.5568  154.0068 Cl      1  UNL1       -0.0822
     21 C         144.8333  142.6101  155.3361 C.ar    1  UNL1        0.0127
     22 C         143.7191  142.4763  156.3313 C.ar    1  UNL1        0.0156
     23 N         143.6166  137.6322  161.5769 N.am    1  UNL1       -0.3253
     24 C         142.3074  138.1221  162.1211 C.2     1  UNL1        0.2442
     25 O         141.1049  137.2257  162.1021 O.2     1  UNL1       -0.2703
     26 H         143.6866  136.7224  161.2074 H       1  UNL1        0.1453
     27 H         144.4059  138.2206  161.5893 H       1  UNL1        0.1453
     28 C         142.9116  141.9369  168.0972 C.3     1  UNL1        0.0742
     29 C         142.1195  141.4669  169.2811 C.3     1  UNL1        0.0386
     30 C         140.6369  141.2726  169.1622 C.3     1  UNL1        0.0908
     31 N         140.0621  140.6144  167.9431 N.am    1  UNL1       -0.3043
     32 C         138.8564  139.7306  168.0659 C.2     1  UNL1        0.2228
     33 O         138.2254  139.5050  169.4079 O.2     1  UNL1       -0.2751
     34 H         140.4763  140.7624  167.0623 H       1  UNL1        0.1494
     35 C         138.2816  139.0724  166.8467 C.3     1  UNL1        0.0898
     36 C         139.1088  138.9468  165.6017 C.3     1  UNL1        0.0375
     37 C         138.6586  139.6073  164.3324 C.2     1  UNL1       -0.0014
     38 C         138.3144  138.9100  163.0497 C.2     1  UNL1        0.0942
     39 N         137.9166  139.9528  162.0475 N.2     1  UNL1       -0.2482
     40 C         138.0150  141.2946  162.7108 C.2     1  UNL1        0.0631
     41 C         137.7463  142.6832  162.2114 C.3     1  UNL1        0.0717
     42 C         137.9361  143.8583  163.1241 C.2     1  UNL1       -0.0198
     43 C         138.3947  143.6448  164.5363 C.2     1  UNL1       -0.0042
     44 C         138.6634  142.2562  165.0357 C.2     1  UNL1        0.0006
     45 C         138.4735  141.0811  164.1229 C.2     1  UNL1        0.0114
@<TRIPOS>BOND
     1    23    24   am
     2    24    25    2
     3    24     1    1
     4     1     2   ar
     5     2    10    1
     6    10    11   am
     7    11    12    2
     8    11    13   am
     9    13    16    1
    10    16    17   ar
    11    17    18   ar
    12    18    19   ar
    13    19    20    1
    14    19    21   ar
    15    21    22   ar
    16     2     3   ar
    17     3     4   ar
    18     4     5   ar
    19     5     6    1
    20     6     7    1
    21     7     8    1
    22     8    28    1
    23    28    29    1
    24    29    30    1
    25    30    31    1
    26    31    32   am
    27    32    33    2
    28    32    35    1
    29    35    36    1
    30    36    37    1
    31    37    38    2
    32    38    39    1
    33    39    40    2
    34    40    41    1
    35    41    42    1
    36    42    43    2
    37    43    44    1
    38    44    45    2
    39     8     9    1
    40     5     1   ar
    41    45    37    1
    42    22    16   ar
    43     9     4    1
    44    45    40    1
    45    23    26    1
    46    23    27    1
    47    10    14    1
    48    13    15    1
    49    31    34    1
@<TRIPOS>MOLECULE
*****
 45 49 0 0 0
SMALL
GASTEIGER

@<TRIPOS>ATOM
      1 C         139.8813  138.4653  161.9385 C.ar    1  UNL1        0.0691
      2 C         138.8746  139.0776  162.8668 C.ar    1  UNL1        0.0857
      3 S         137.9029  139.8673  162.0411 S.2     1  UNL1       -0.0753
      4 C         138.3089  139.7431  160.6024 C.ar    1  UNL1        0.0209
      5 C         139.5316  138.8766  160.5390 C.ar    1  UNL1       -0.0114
      6 C         140.1686  138.5740  159.2152 C.3     1  UNL1        0.0441
      7 C         139.5829  139.1379  157.9547 C.3     1  UNL1        0.0771
      8 N         138.3602  140.0045  158.0181 N.3     1  UNL1       -0.2682
      9 C         137.7231  140.3070  159.3419 C.3     1  UNL1        0.1054
     10 N         138.8450  138.9266  164.3589 N.am    1  UNL1       -0.2629
     11 C         139.7827  139.7278  165.2126 C.2     1  UNL1        0.3085
     12 O         140.7501  140.6800  164.5741 O.2     1  UNL1       -0.2521
     13 N         139.7531  139.5769  166.7047 N.am    1  UNL1       -0.2680
     14 H         138.2101  138.3017  164.7780 H       1  UNL1        0.1569
     15 H         139.1182  138.9520  167.1237 H       1  UNL1        0.1564
     16 C         140.6909  140.3782  167.5583 C.ar    1  UNL1        0.0516
     17 C         141.9739  139.7680  168.0395 C.ar    1  UNL1        0.0156
     18 C         142.9117  140.5692  168.8931 C.ar    1  UNL1        0.0127
     19 C         142.5664  141.9807  169.2655 C.ar    1  UNL1        0.0578
     20 CL        143.5041  142.7819  170.1191 Cl      1  UNL1       -0.0822
     21 C         141.2833  142.5908  168.7843 C.ar    1  UNL1        0.0127
     22 C         140.3456  141.7896  167.9307 C.ar    1  UNL1        0.0156
     23 N         142.2456  137.5010  161.4584 N.am    1  UNL1       -0.3253
     24 C         141.0350  137.5945  162.3393 C.2     1  UNL1        0.2442
     25 O         140.9783  136.8172  163.6209 O.2     1  UNL1       -0.2703
     26 H         143.0028  136.9295  161.7214 H       1  UNL1        0.1453
     27 H         142.2828  138.0112  160.6172 H       1  UNL1        0.1453
     28 C         137.7745  140.5685  156.7575 C.3     1  UNL1        0.0742
     29 C         137.4522  142.0307  156.6690 C.3     1  UNL1        0.0386
     30 C         138.5500  143.0481  156.7695 C.3     1  UNL1        0.0908
     31 N         139.8755  142.6655  157.3580 N.am    1  UNL1       -0.3043
     32 C         140.1455  142.9009  158.8145 C.2     1  UNL1        0.2228
     33 O         139.0898  143.5190  159.6826 O.2     1  UNL1       -0.2751
     34 H         140.5684  142.2598  156.7882 H       1  UNL1        0.1494
     35 C         141.4711  142.5183  159.4031 C.3     1  UNL1        0.0898
     36 C         142.2526  143.5173  160.2039 C.3     1  UNL1        0.0375
     37 C         143.3344  143.0523  161.1331 C.2     1  UNL1       -0.0014
     38 C         144.6570  142.4731  160.7267 C.2     1  UNL1        0.0942
     39 N         145.4236  142.1476  161.9744 N.2     1  UNL1       -0.2482
     40 C         144.5746  142.5257  163.1519 C.2     1  UNL1        0.0631
     41 C         144.8104  142.4331  164.6303 C.3     1  UNL1        0.0717
     42 C         143.7551  142.8996  165.5888 C.2     1  UNL1       -0.0198
     43 C         142.4639  143.4587  165.0689 C.2     1  UNL1       -0.0042
     44 C         142.2281  143.5513  163.5904 C.2     1  UNL1        0.0006
     45 C         143.2834  143.0848  162.6320 C.2     1  UNL1        0.0114
@<TRIPOS>BOND
     1    23    24   am
     2    24    25    2
     3    24     1    1
     4     1     2   ar
     5     2    10    1
     6    10    11   am
     7    11    12    2
     8    11    13   am
     9    13    16    1
    10    16    17   ar
    11    17    18   ar
    12    18    19   ar
    13    19    20    1
    14    19    21   ar
    15    21    22   ar
    16     2     3   ar
    17     3     4   ar
    18     4     5   ar
    19     5     6    1
    20     6     7    1
    21     7     8    1
    22     8    28    1
    23    28    29    1
    24    29    30    1
    25    30    31    1
    26    31    32   am
    27    32    33    2
    28    32    35    1
    29    35    36    1
    30    36    37    1
    31    37    38    2
    32    38    39    1
    33    39    40    2
    34    40    41    1
    35    41    42    1
    36    42    43    2
    37    43    44    1
    38    44    45    2
    39     8     9    1
    40     5     1   ar
    41    45    37    1
    42    22    16   ar
    43     9     4    1
    44    45    40    1
    45    23    26    1
    46    23    27    1
    47    10    14    1
    48    13    15    1
    49    31    34    1
@<TRIPOS>MOLECULE
*****
 45 49 0 0 0
SMALL
GASTEIGER

@<TRIPOS>ATOM
      1 C         139.2127  143.3209  161.8809 C.ar    1  UNL1        0.0691
      2 C         140.0380  144.1428  162.8260 C.ar    1  UNL1        0.0857
      3 S         141.0447  144.9069  162.0180 S.2     1  UNL1       -0.0753
      4 C         140.8416  144.5571  160.5736 C.ar    1  UNL1        0.0209
      5 C         139.7093  143.5769  160.4888 C.ar    1  UNL1       -0.0114
      6 C         139.2768  143.0441  159.1550 C.3     1  UNL1        0.0441
      7 C         139.9766  143.4915  157.9060 C.3     1  UNL1        0.0771
      8 N         141.1089  144.4718  157.9908 N.3     1  UNL1       -0.2682
      9 C         141.5414  145.0045  159.3245 C.3     1  UNL1        0.1054
     10 N         139.8837  144.1921  164.3172 N.am    1  UNL1       -0.2629
     11 C         140.4505  143.0933  165.1666 C.2     1  UNL1        0.3085
     12 O         141.1716  141.9452  164.5247 O.2     1  UNL1       -0.2521
     13 N         140.2962  143.1426  166.6578 N.am    1  UNL1       -0.2680
     14 H         139.4105  144.9456  164.7385 H       1  UNL1        0.1569
     15 H         139.8229  143.8961  167.0791 H       1  UNL1        0.1564
     16 C         140.8630  142.0438  167.5072 C.ar    1  UNL1        0.0516
     17 C         142.3076  142.0762  167.9096 C.ar    1  UNL1        0.0156
     18 C         142.8744  140.9773  168.7590 C.ar    1  UNL1        0.0127
     19 C         141.9965  139.8461  169.2059 C.ar    1  UNL1        0.0578
     20 CL        142.5632  138.7473  170.0552 Cl      1  UNL1       -0.0822
     21 C         140.5518  139.8138  168.8034 C.ar    1  UNL1        0.0127
     22 C         139.9851  140.9126  167.9540 C.ar    1  UNL1        0.0156
     23 N         137.8025  141.1848  161.4348 N.am    1  UNL1       -0.3253
     24 C         138.0882  142.4039  162.2610 C.2     1  UNL1        0.2442
     25 O         137.2493  142.7057  163.4673 O.2     1  UNL1       -0.2703
     26 H         137.0645  140.5829  161.6844 H       1  UNL1        0.1453
     27 H         138.3531  140.9866  160.6431 H       1  UNL1        0.1453
     28 C         141.8086  144.9192  156.7416 C.3     1  UNL1        0.0742
     29 C         142.4022  143.9045  155.8101 C.3     1  UNL1        0.0386
     30 C         143.3573  142.8733  156.3342 C.3     1  UNL1        0.0908
     31 N         143.5621  142.7234  157.8125 N.am    1  UNL1       -0.3043
     32 C         143.0159  141.5232  158.5275 C.2     1  UNL1        0.2228
     33 O         142.2648  140.4729  157.7640 O.2     1  UNL1       -0.2751
     34 H         144.0550  143.4127  158.3136 H       1  UNL1        0.1494
     35 C         143.2207  141.3733  160.0059 C.3     1  UNL1        0.0898
     36 C         143.7958  140.1028  160.5583 C.3     1  UNL1        0.0375
     37 C         142.9380  139.1858  161.3788 C.2     1  UNL1       -0.0014
     38 C         141.9093  138.2315  160.8485 C.2     1  UNL1        0.0942
     39 N         141.2937  137.5179  162.0157 N.2     1  UNL1       -0.2482
     40 C         141.9420  138.0313  163.2672 C.2     1  UNL1        0.0631
     41 C         141.7383  137.6933  164.7143 C.3     1  UNL1        0.0717
     42 C         142.5508  138.3860  165.7678 C.2     1  UNL1       -0.0198
     43 C         143.5670  139.4168  165.3743 C.2     1  UNL1       -0.0042
     44 C         143.7707  139.7548  163.9271 C.2     1  UNL1        0.0006
     45 C         142.9582  139.0620  162.8736 C.2     1  UNL1        0.0114
@<TRIPOS>BOND
     1    23    24   am
     2    24    25    2
     3    24     1    1
     4     1     2   ar
     5     2    10    1
     6    10    11   am
     7    11    12    2
     8    11    13   am
     9    13    16    1
    10    16    17   ar
    11    17    18   ar
    12    18    19   ar
    13    19    20    1
    14    19    21   ar
    15    21    22   ar
    16     2     3   ar
    17     3     4   ar
    18     4     5   ar
    19     5     6    1
    20     6     7    1
    21     7     8    1
    22     8    28    1
    23    28    29    1
    24    29    30    1
    25    30    31    1
    26    31    32   am
    27    32    33    2
    28    32    35    1
    29    35    36    1
    30    36    37    1
    31    37    38    2
    32    38    39    1
    33    39    40    2
    34    40    41    1
    35    41    42    1
    36    42    43    2
    37    43    44    1
    38    44    45    2
    39     8     9    1
    40     5     1   ar
    41    45    37    1
    42    22    16   ar
    43     9     4    1
    44    45    40    1
    45    23    26    1
    46    23    27    1
    47    10    14    1
    48    13    15    1
    49    31    34    1
@<TRIPOS>MOLECULE
*****
 45 49 0 0 0
SMALL
GASTEIGER

@<TRIPOS>ATOM
      1 C         143.9289  140.2700  162.3596 C.ar    1  UNL1        0.0691
      2 C         143.5587  139.0863  163.2033 C.ar    1  UNL1        0.0857
      3 S         143.0094  138.0248  162.2970 S.2     1  UNL1       -0.0753
      4 C         143.0401  138.5524  160.8932 C.ar    1  UNL1        0.0209
      5 C         143.6084  139.9400  160.9319 C.ar    1  UNL1       -0.0114
      6 C         143.7606  140.7238  159.6620 C.3     1  UNL1        0.0441
      7 C         143.3444  140.1199  158.3536 C.3     1  UNL1        0.0771
      8 N         142.7761  138.7323  158.3149 N.3     1  UNL1       -0.2682
      9 C         142.6240  137.9485  159.5847 C.3     1  UNL1        0.1054
     10 N         143.7111  138.9825  164.6919 N.am    1  UNL1       -0.2629
     11 C         142.8569  139.8232  165.5938 C.2     1  UNL1        0.3085
     12 O         141.8502  140.7680  165.0070 O.2     1  UNL1       -0.2521
     13 N         143.0093  139.7194  167.0824 N.am    1  UNL1       -0.2680
     14 H         144.3718  138.3624  165.0770 H       1  UNL1        0.1569
     15 H         143.6700  139.0993  167.4675 H       1  UNL1        0.1564
     16 C         142.1550  140.5602  167.9843 C.ar    1  UNL1        0.0516
     17 C         140.7790  140.0966  168.3605 C.ar    1  UNL1        0.0156
     18 C         139.9247  140.9375  169.2624 C.ar    1  UNL1        0.0127
     19 C         140.4465  142.2419  169.7879 C.ar    1  UNL1        0.0578
     20 CL        139.5924  143.0827  170.6897 Cl      1  UNL1       -0.0822
     21 C         141.8227  142.7054  169.4116 C.ar    1  UNL1        0.0127
     22 C         142.6768  141.8646  168.5098 C.ar    1  UNL1        0.0156
     23 N         143.6153  142.6651  163.3163 N.am    1  UNL1       -0.3253
     24 C         144.5165  141.5576  162.8563 C.2     1  UNL1        0.2442
     25 O         146.0051  141.7379  162.8932 O.2     1  UNL1       -0.2703
     26 H         144.0009  143.5103  163.6423 H       1  UNL1        0.1453
     27 H         142.6382  142.5469  163.2921 H       1  UNL1        0.1453
     28 C         142.3600  138.1284  157.0063 C.3     1  UNL1        0.0742
     29 C         141.0442  138.5038  156.3918 C.3     1  UNL1        0.0386
     30 C         139.8134  138.5843  157.2455 C.3     1  UNL1        0.0908
     31 N         139.6424  139.7206  158.2096 N.am    1  UNL1       -0.3043
     32 C         139.3542  139.4409  159.6548 C.2     1  UNL1        0.2228
     33 O         139.2370  138.0250  160.1359 O.2     1  UNL1       -0.2751
     34 H         139.7194  140.6499  157.8939 H       1  UNL1        0.1494
     35 C         139.1832  140.5772  160.6191 C.3     1  UNL1        0.0898
     36 C         139.4103  141.9882  160.1634 C.3     1  UNL1        0.0375
     37 C         139.9767  143.0011  161.1137 C.2     1  UNL1       -0.0014
     38 C         141.2541  143.7656  160.9292 C.2     1  UNL1        0.0942
     39 N         141.4320  144.6645  162.1168 N.2     1  UNL1       -0.2482
     40 C         140.2645  144.4556  163.0353 C.2     1  UNL1        0.0631
     41 C         139.9043  145.0686  164.3560 C.3     1  UNL1        0.0717
     42 C         138.6447  144.6538  165.0568 C.2     1  UNL1       -0.0198
     43 C         137.7452  143.6257  164.4369 C.2     1  UNL1       -0.0042
     44 C         138.1055  143.0127  163.1161 C.2     1  UNL1        0.0006
     45 C         139.3652  143.4276  162.4153 C.2     1  UNL1        0.0114
@<TRIPOS>BOND
     1    23    24   am
     2    24    25    2
     3    24     1    1
     4     1     2   ar
     5     2    10    1
     6    10    11   am
     7    11    12    2
     8    11    13   am
     9    13    16    1
    10    16    17   ar
    11    17    18   ar
    12    18    19   ar
    13    19    20    1
    14    19    21   ar
    15    21    22   ar
    16     2     3   ar
    17     3     4   ar
    18     4     5   ar
    19     5     6    1
    20     6     7    1
    21     7     8    1
    22     8    28    1
    23    28    29    1
    24    29    30    1
    25    30    31    1
    26    31    32   am
    27    32    33    2
    28    32    35    1
    29    35    36    1
    30    36    37    1
    31    37    38    2
    32    38    39    1
    33    39    40    2
    34    40    41    1
    35    41    42    1
    36    42    43    2
    37    43    44    1
    38    44    45    2
    39     8     9    1
    40     5     1   ar
    41    45    37    1
    42    22    16   ar
    43     9     4    1
    44    45    40    1
    45    23    26    1
    46    23    27    1
    47    10    14    1
    48    13    15    1
    49    31    34    1
@<TRIPOS>MOLECULE
*****
 45 49 0 0 0
SMALL
GASTEIGER

@<TRIPOS>ATOM
      1 C         141.6186  144.5454  161.1203 C.ar    1  UNL1        0.0691
      2 C         142.2959  144.1995  159.8274 C.ar    1  UNL1        0.0857
      3 S         143.2877  143.1080  160.1013 S.2     1  UNL1       -0.0753
      4 C         143.2233  142.7793  161.5634 C.ar    1  UNL1        0.0209
      5 C         142.1918  143.6677  162.1932 C.ar    1  UNL1       -0.0114
      6 C         141.9076  143.5627  163.6623 C.3     1  UNL1        0.0441
      7 C         142.6551  142.5693  164.5016 C.3     1  UNL1        0.0771
      8 N         143.6866  141.6809  163.8718 N.3     1  UNL1       -0.2682
      9 C         143.9708  141.7859  162.4027 C.3     1  UNL1        0.1054
     10 N         142.0284  144.8337  158.4946 N.am    1  UNL1       -0.2629
     11 C         140.9241  144.3119  157.6239 C.2     1  UNL1        0.3085
     12 O         140.0873  143.1559  158.0858 O.2     1  UNL1       -0.2521
     13 N         140.6567  144.9461  156.2911 N.am    1  UNL1       -0.2680
     14 H         142.5777  145.5924  158.1914 H       1  UNL1        0.1569
     15 H         141.2059  145.7048  155.9879 H       1  UNL1        0.1564
     16 C         139.5523  144.4243  155.4203 C.ar    1  UNL1        0.0516
     17 C         138.2423  145.1518  155.3538 C.ar    1  UNL1        0.0156
     18 C         137.1379  144.6299  154.4831 C.ar    1  UNL1        0.0127
     19 C         137.3437  143.3806  153.6788 C.ar    1  UNL1        0.0578
     20 CL        136.2394  142.8588  152.8081 Cl      1  UNL1       -0.0822
     21 C         138.6538  142.6531  153.7453 C.ar    1  UNL1        0.0127
     22 C         139.7581  143.1749  154.6161 C.ar    1  UNL1        0.0156
     23 N         140.5214  146.4073  162.5625 N.am    1  UNL1       -0.3253
     24 C         140.5549  145.5863  161.3074 C.2     1  UNL1        0.2442
     25 O         139.5247  145.8063  160.2397 O.2     1  UNL1       -0.2703
     26 H         139.8232  147.0904  162.6853 H       1  UNL1        0.1453
     27 H         141.1976  146.2629  163.2633 H       1  UNL1        0.1453
     28 C         144.4341  140.6875  164.7111 C.3     1  UNL1        0.0742
     29 C         144.3568  139.2246  164.3889 C.3     1  UNL1        0.0386
     30 C         143.1136  138.6576  163.7698 C.3     1  UNL1        0.0908
     31 N         141.8451  138.5841  164.5670 N.am    1  UNL1       -0.3043
     32 C         140.7270  137.6915  164.1167 C.2     1  UNL1        0.2228
     33 O         140.8773  136.8723  162.8691 O.2     1  UNL1       -0.2751
     34 H         141.7465  139.1217  165.3858 H       1  UNL1        0.1494
     35 C         139.4584  137.6179  164.9139 C.3     1  UNL1        0.0898
     36 C         138.5947  138.8351  165.0630 C.3     1  UNL1        0.0375
     37 C         138.3073  139.7012  163.8725 C.2     1  UNL1       -0.0014
     38 C         138.0415  139.2210  162.4765 C.2     1  UNL1        0.0942
     39 N         137.8051  140.4226  161.6101 N.2     1  UNL1       -0.2482
     40 C         137.9248  141.6453  162.4708 C.2     1  UNL1        0.0631
     41 C         137.7913  143.1071  162.1619 C.3     1  UNL1        0.0717
     42 C         137.9681  144.1230  163.2512 C.2     1  UNL1       -0.0198
     43 C         138.2784  143.6772  164.6494 C.2     1  UNL1       -0.0042
     44 C         138.4120  142.2154  164.9583 C.2     1  UNL1        0.0006
     45 C         138.2351  141.1995  163.8689 C.2     1  UNL1        0.0114
@<TRIPOS>BOND
     1    23    24   am
     2    24    25    2
     3    24     1    1
     4     1     2   ar
     5     2    10    1
     6    10    11   am
     7    11    12    2
     8    11    13   am
     9    13    16    1
    10    16    17   ar
    11    17    18   ar
    12    18    19   ar
    13    19    20    1
    14    19    21   ar
    15    21    22   ar
    16     2     3   ar
    17     3     4   ar
    18     4     5   ar
    19     5     6    1
    20     6     7    1
    21     7     8    1
    22     8    28    1
    23    28    29    1
    24    29    30    1
    25    30    31    1
    26    31    32   am
    27    32    33    2
    28    32    35    1
    29    35    36    1
    30    36    37    1
    31    37    38    2
    32    38    39    1
    33    39    40    2
    34    40    41    1
    35    41    42    1
    36    42    43    2
    37    43    44    1
    38    44    45    2
    39     8     9    1
    40     5     1   ar
    41    45    37    1
    42    22    16   ar
    43     9     4    1
    44    45    40    1
    45    23    26    1
    46    23    27    1
    47    10    14    1
    48    13    15    1
    49    31    34    1
