@<TRIPOS>MOLECULE
*****
 26 28 0 0 0
SMALL
GASTEIGER

@<TRIPOS>ATOM
      1 C         140.7799  141.7332  165.6565 C.ar    1  UNL1        0.0888
      2 C         140.6004  143.1179  165.1085 C.ar    1  UNL1        0.0538
      3 C         141.0575  143.4386  163.7162 C.ar    1  UNL1        0.1388
      4 N         141.6941  142.3746  162.8721 N.ar    1  UNL1       -0.1948
      5 C         141.8736  140.9898  163.4202 C.ar    1  UNL1        0.2539
      6 N         141.4165  140.6692  164.8124 N.ar    1  UNL1       -0.2098
      7 N         142.5102  139.9258  162.5761 N.ar    1  UNL1       -0.2008
      8 N         141.9721  139.3857  161.2843 N.ar    1  UNL1       -0.1673
      9 C         142.9260  138.3411  160.7853 C.ar    1  UNL1        0.0806
     10 C         142.7782  137.5424  159.5244 C.3     1  UNL1        0.0540
     11 C         144.0537  138.2356  161.7688 C.ar    1  UNL1        0.0313
     12 C         143.7967  139.2150  162.8755 C.ar    1  UNL1        0.0651
     13 C         144.6725  139.4434  164.0717 C.3     1  UNL1        0.0523
     14 C         140.0262  142.1053  169.5351 C.ar    1  UNL1        0.1579
     15 C         139.4087  140.7713  169.8331 C.ar    1  UNL1        0.1356
     16 N         139.2483  139.7578  168.7390 N.ar    1  UNL1       -0.2391
     17 C         139.7053  140.0784  167.3468 C.ar    1  UNL1        0.1006
     18 C         140.3228  141.4125  167.0488 C.ar    1  UNL1        0.0400
     19 C         140.4832  142.4260  168.1429 C.ar    1  UNL1        0.0416
     20 C         140.4245  144.5599  170.2878 C.3     1  UNL1        0.2525
     21 O         140.1866  143.1188  170.6293 O.3     1  UNL1       -0.4699
     22 N         140.8780  144.8233  163.1682 N.am    1  UNL1       -0.2692
     23 C         139.7569  145.1131  162.2148 C.2     1  UNL1        0.2277
     24 C         139.5774  146.4977  161.6667 C.3     1  UNL1        0.0950
     25 O         138.8152  144.0182  161.8094 O.2     1  UNL1       -0.2747
     26 H         141.4961  145.5419  163.4342 H       1  UNL1        0.1563
@<TRIPOS>BOND
     1    20    21    1
     2    21    14    1
     3    14    15   ar
     4    15    16   ar
     5    16    17   ar
     6    17    18   ar
     7    18     1    1
     8     1     2   ar
     9     2     3   ar
    10     3    22    1
    11    22    23   am
    12    23    24    1
    13    23    25    2
    14     3     4   ar
    15     4     5   ar
    16     5     7    1
    17     7     8   ar
    18     8     9   ar
    19     9    10    1
    20     9    11   ar
    21    11    12   ar
    22    12    13    1
    23     5     6   ar
    24    18    19   ar
    25    19    14   ar
    26     6     1   ar
    27    12     7   ar
    28    22    26    1
@<TRIPOS>MOLECULE
*****
 26 28 0 0 0
SMALL
GASTEIGER

@<TRIPOS>ATOM
      1 C         142.1425  140.9416  166.1860 C.ar    1  UNL1        0.0888
      2 C         143.0000  140.1043  165.2839 C.ar    1  UNL1        0.0538
      3 C         142.9597  140.3184  163.7998 C.ar    1  UNL1        0.1388
      4 N         142.0620  141.3697  163.2177 N.ar    1  UNL1       -0.1948
      5 C         141.2045  142.2070  164.1199 C.ar    1  UNL1        0.2539
      6 N         141.2448  141.9930  165.6039 N.ar    1  UNL1       -0.2098
      7 N         140.3068  143.2583  163.5378 N.ar    1  UNL1       -0.2008
      8 N         140.7449  144.4404  162.7249 N.ar    1  UNL1       -0.1673
      9 C         139.5222  145.2248  162.3511 C.ar    1  UNL1        0.0806
     10 C         139.4977  146.4852  161.5382 C.3     1  UNL1        0.0540
     11 C         138.3284  144.5276  162.9331 C.ar    1  UNL1        0.0313
     12 C         138.8133  143.3122  163.6665 C.ar    1  UNL1        0.0651
     13 C         137.9553  142.3243  164.3998 C.3     1  UNL1        0.0523
     14 C         141.6864  141.5661  170.0785 C.ar    1  UNL1        0.1579
     15 C         142.2633  140.2997  170.6383 C.ar    1  UNL1        0.1356
     16 N         142.8000  139.2473  169.7140 N.ar    1  UNL1       -0.2391
     17 C         142.7597  139.4612  168.2299 C.ar    1  UNL1        0.1006
     18 C         142.1828  140.7276  167.6701 C.ar    1  UNL1        0.0400
     19 C         141.6461  141.7800  168.5945 C.ar    1  UNL1        0.0416
     20 C         139.7239  143.0679  170.8804 C.3     1  UNL1        0.2525
     21 O         141.1497  142.6185  171.0029 O.3     1  UNL1       -0.4699
     22 N         143.8171  139.4811  162.8978 N.am    1  UNL1       -0.2692
     23 C         143.1952  138.4041  162.0590 C.2     1  UNL1        0.2277
     24 C         144.0527  137.5668  161.1570 C.3     1  UNL1        0.0950
     25 O         141.7159  138.1645  162.1224 O.2     1  UNL1       -0.2747
     26 H         144.7881  139.6383  162.8562 H       1  UNL1        0.1563
@<TRIPOS>BOND
     1    20    21    1
     2    21    14    1
     3    14    15   ar
     4    15    16   ar
     5    16    17   ar
     6    17    18   ar
     7    18     1    1
     8     1     2   ar
     9     2     3   ar
    10     3    22    1
    11    22    23   am
    12    23    24    1
    13    23    25    2
    14     3     4   ar
    15     4     5   ar
    16     5     7    1
    17     7     8   ar
    18     8     9   ar
    19     9    10    1
    20     9    11   ar
    21    11    12   ar
    22    12    13    1
    23     5     6   ar
    24    18    19   ar
    25    19    14   ar
    26     6     1   ar
    27    12     7   ar
    28    22    26    1
@<TRIPOS>MOLECULE
*****
 26 28 0 0 0
SMALL
GASTEIGER

@<TRIPOS>ATOM
      1 C         140.6299  142.1645  166.4919 C.ar    1  UNL1        0.0888
      2 C         140.0827  143.3638  165.7762 C.ar    1  UNL1        0.0538
      3 C         139.9093  143.3337  164.2865 C.ar    1  UNL1        0.1388
      4 N         140.2833  142.1044  163.5126 N.ar    1  UNL1       -0.1948
      5 C         140.8306  140.9052  164.2284 C.ar    1  UNL1        0.2539
      6 N         141.0039  140.9352  165.7180 N.ar    1  UNL1       -0.2098
      7 N         141.2046  139.6758  163.4544 N.ar    1  UNL1       -0.2008
      8 N         142.2864  139.5805  162.4198 N.ar    1  UNL1       -0.1673
      9 C         142.3128  138.1718  161.9052 C.ar    1  UNL1        0.0806
     10 C         143.2416  137.6330  160.8578 C.3     1  UNL1        0.0540
     11 C         141.2473  137.3964  162.6218 C.ar    1  UNL1        0.0313
     12 C         140.5624  138.3260  163.5793 C.ar    1  UNL1        0.0651
     13 C         139.4335  137.9685  164.5000 C.3     1  UNL1        0.0523
     14 C         141.6088  141.0613  170.1763 C.ar    1  UNL1        0.1579
     15 C         141.1499  142.2545  170.9608 C.ar    1  UNL1        0.1356
     16 N         140.5177  143.4178  170.2558 N.ar    1  UNL1       -0.2391
     17 C         140.3444  143.3878  168.7661 C.ar    1  UNL1        0.1006
     18 C         140.8033  142.1946  167.9816 C.ar    1  UNL1        0.0400
     19 C         141.4355  141.0313  168.6867 C.ar    1  UNL1        0.0416
     20 C         142.7420  138.7249  170.0923 C.3     1  UNL1        0.2525
     21 O         142.2410  139.8980  170.8814 O.3     1  UNL1       -0.4699
     22 N         139.3621  144.5330  163.5708 N.am    1  UNL1       -0.2692
     23 C         140.2040  145.2508  162.5579 C.2     1  UNL1        0.2277
     24 C         139.6567  146.4500  161.8422 C.3     1  UNL1        0.0950
     25 O         141.5931  144.7693  162.2607 O.2     1  UNL1       -0.2747
     26 H         138.4503  144.8490  163.7658 H       1  UNL1        0.1563
@<TRIPOS>BOND
     1    20    21    1
     2    21    14    1
     3    14    15   ar
     4    15    16   ar
     5    16    17   ar
     6    17    18   ar
     7    18     1    1
     8     1     2   ar
     9     2     3   ar
    10     3    22    1
    11    22    23   am
    12    23    24    1
    13    23    25    2
    14     3     4   ar
    15     4     5   ar
    16     5     7    1
    17     7     8   ar
    18     8     9   ar
    19     9    10    1
    20     9    11   ar
    21    11    12   ar
    22    12    13    1
    23     5     6   ar
    24    18    19   ar
    25    19    14   ar
    26     6     1   ar
    27    12     7   ar
    28    22    26    1
@<TRIPOS>MOLECULE
*****
 26 28 0 0 0
SMALL
GASTEIGER

@<TRIPOS>ATOM
      1 C         141.0751  140.3251  166.2734 C.ar    1  UNL1        0.0888
      2 C         141.6860  139.2878  165.3785 C.ar    1  UNL1        0.0538
      3 C         141.6714  139.4782  163.8907 C.ar    1  UNL1        0.1388
      4 N         141.0459  140.7060  163.2978 N.ar    1  UNL1       -0.1948
      5 C         140.4350  141.7433  164.1928 C.ar    1  UNL1        0.2539
      6 N         140.4496  141.5528  165.6806 N.ar    1  UNL1       -0.2098
      7 N         139.8096  142.9710  163.6000 N.ar    1  UNL1       -0.2008
      8 N         140.5321  144.0627  162.8678 N.ar    1  UNL1       -0.1673
      9 C         139.5208  145.0890  162.4505 C.ar    1  UNL1        0.0806
     10 C         139.8069  146.3512  161.6921 C.3     1  UNL1        0.0540
     11 C         138.1733  144.6315  162.9247 C.ar    1  UNL1        0.0313
     12 C         138.3518  143.3225  163.6351 C.ar    1  UNL1        0.0651
     13 C         137.2635  142.5080  164.2694 C.3     1  UNL1        0.0523
     14 C         142.2890  139.3060  169.9119 C.ar    1  UNL1        0.1579
     15 C         141.1190  139.7538  170.7368 C.ar    1  UNL1        0.1356
     16 N         139.9343  140.3920  170.0740 N.ar    1  UNL1       -0.2391
     17 C         139.9197  140.5824  168.5862 C.ar    1  UNL1        0.1006
     18 C         141.0897  140.1347  167.7613 C.ar    1  UNL1        0.0400
     19 C         142.2743  139.4965  168.4241 C.ar    1  UNL1        0.0416
     20 C         143.5704  137.1735  170.6601 C.3     1  UNL1        0.2525
     21 O         143.4736  138.6679  170.5747 O.3     1  UNL1       -0.4699
     22 N         142.2822  138.4410  162.9958 N.am    1  UNL1       -0.2692
     23 C         143.5232  138.7600  162.2159 C.2     1  UNL1        0.2277
     24 C         144.1341  137.7228  161.3210 C.3     1  UNL1        0.0950
     25 O         144.1533  140.1164  162.3309 O.2     1  UNL1       -0.2747
     26 H         141.8687  137.5507  162.9203 H       1  UNL1        0.1563
@<TRIPOS>BOND
     1    20    21    1
     2    21    14    1
     3    14    15   ar
     4    15    16   ar
     5    16    17   ar
     6    17    18   ar
     7    18     1    1
     8     1     2   ar
     9     2     3   ar
    10     3    22    1
    11    22    23   am
    12    23    24    1
    13    23    25    2
    14     3     4   ar
    15     4     5   ar
    16     5     7    1
    17     7     8   ar
    18     8     9   ar
    19     9    10    1
    20     9    11   ar
    21    11    12   ar
    22    12    13    1
    23     5     6   ar
    24    18    19   ar
    25    19    14   ar
    26     6     1   ar
    27    12     7   ar
    28    22    26    1
@<TRIPOS>MOLECULE
*****
 26 28 0 0 0
SMALL
GASTEIGER

@<TRIPOS>ATOM
      1 C         141.1349  138.8244  161.3191 C.ar    1  UNL1        0.0888
      2 C         140.3545  138.0528  162.3416 C.ar    1  UNL1        0.0538
      3 C         140.4469  138.4236  163.7921 C.ar    1  UNL1        0.1388
      4 N         141.3198  139.5659  164.2201 N.ar    1  UNL1       -0.1948
      5 C         142.1003  140.3374  163.1975 C.ar    1  UNL1        0.2539
      6 N         142.0079  139.9666  161.7470 N.ar    1  UNL1       -0.2098
      7 N         142.9733  141.4797  163.6255 N.ar    1  UNL1       -0.2008
      8 N         142.5887  142.9295  163.6305 N.ar    1  UNL1       -0.1673
      9 C         143.7618  143.7186  164.1317 C.ar    1  UNL1        0.0806
     10 C         143.8158  145.2083  164.2988 C.3     1  UNL1        0.0540
     11 C         144.8714  142.7564  164.4365 C.ar    1  UNL1        0.0313
     12 C         144.3841  141.3727  164.1236 C.ar    1  UNL1        0.0651
     13 C         145.1697  140.1046  164.2812 C.3     1  UNL1        0.0523
     14 C         142.1934  137.7464  157.6492 C.ar    1  UNL1        0.1579
     15 C         140.8577  137.7122  156.9675 C.ar    1  UNL1        0.1356
     16 N         139.6144  138.0487  157.7363 N.ar    1  UNL1       -0.2391
     17 C         139.7068  138.4194  159.1868 C.ar    1  UNL1        0.1006
     18 C         141.0425  138.4536  159.8685 C.ar    1  UNL1        0.0400
     19 C         142.2858  138.1171  159.0997 C.ar    1  UNL1        0.0416
     20 C         143.4394  136.2502  155.9291 C.3     1  UNL1        0.2525
     21 O         143.4367  137.4099  156.8804 O.3     1  UNL1       -0.4699
     22 N         139.6664  137.6521  164.8146 N.am    1  UNL1       -0.2692
     23 C         138.5321  138.3084  165.5443 C.2     1  UNL1        0.2277
     24 C         137.7516  137.5369  166.5668 C.3     1  UNL1        0.0950
     25 O         138.1782  139.7363  165.2515 O.2     1  UNL1       -0.2747
     26 H         139.8987  136.7149  165.0069 H       1  UNL1        0.1563
@<TRIPOS>BOND
     1    20    21    1
     2    21    14    1
     3    14    15   ar
     4    15    16   ar
     5    16    17   ar
     6    17    18   ar
     7    18     1    1
     8     1     2   ar
     9     2     3   ar
    10     3    22    1
    11    22    23   am
    12    23    24    1
    13    23    25    2
    14     3     4   ar
    15     4     5   ar
    16     5     7    1
    17     7     8   ar
    18     8     9   ar
    19     9    10    1
    20     9    11   ar
    21    11    12   ar
    22    12    13    1
    23     5     6   ar
    24    18    19   ar
    25    19    14   ar
    26     6     1   ar
    27    12     7   ar
    28    22    26    1
@<TRIPOS>MOLECULE
*****
 26 28 0 0 0
SMALL
GASTEIGER

@<TRIPOS>ATOM
      1 C         140.6577  142.2741  163.1764 C.ar    1  UNL1        0.0888
      2 C         141.2628  141.0992  162.4669 C.ar    1  UNL1        0.0538
      3 C         141.5383  139.8302  163.2177 C.ar    1  UNL1        0.1388
      4 N         141.2086  139.7361  164.6780 N.ar    1  UNL1       -0.1948
      5 C         140.6034  140.9110  165.3875 C.ar    1  UNL1        0.2539
      6 N         140.3280  142.1800  164.6367 N.ar    1  UNL1       -0.2098
      7 N         140.2738  140.8170  166.8478 N.ar    1  UNL1       -0.2008
      8 N         140.9295  141.5927  167.9515 N.ar    1  UNL1       -0.1673
      9 C         140.2915  141.1858  169.2466 C.ar    1  UNL1        0.0806
     10 C         140.6421  141.7135  170.6063 C.3     1  UNL1        0.0540
     11 C         139.2414  140.1585  168.9434 C.ar    1  UNL1        0.0313
     12 C         139.2304  139.9306  167.4608 C.ar    1  UNL1        0.0651
     13 C         138.3335  138.9827  166.7211 C.3     1  UNL1        0.0523
     14 C         140.9422  145.1749  160.4829 C.ar    1  UNL1        0.1579
     15 C         139.8314  146.0812  160.9240 C.ar    1  UNL1        0.1356
     16 N         138.9961  145.7186  162.1159 N.ar    1  UNL1       -0.2391
     17 C         139.2715  144.4496  162.8667 C.ar    1  UNL1        0.1006
     18 C         140.3822  143.5432  162.4256 C.ar    1  UNL1        0.0400
     19 C         141.2176  143.9059  161.2337 C.ar    1  UNL1        0.0416
     20 C         141.1321  145.7153  157.9488 C.3     1  UNL1        0.2525
     21 O         141.7776  145.5375  159.2910 O.3     1  UNL1       -0.4699
     22 N         142.1434  138.6553  162.5082 N.am    1  UNL1       -0.2692
     23 C         143.5454  138.7379  161.9814 C.2     1  UNL1        0.2277
     24 C         144.1505  137.5630  161.2720 C.3     1  UNL1        0.0950
     25 O         144.3423  139.9955  162.1642 O.2     1  UNL1       -0.2747
     26 H         141.6203  137.8299  162.3883 H       1  UNL1        0.1563
@<TRIPOS>BOND
     1    20    21    1
     2    21    14    1
     3    14    15   ar
     4    15    16   ar
     5    16    17   ar
     6    17    18   ar
     7    18     1    1
     8     1     2   ar
     9     2     3   ar
    10     3    22    1
    11    22    23   am
    12    23    24    1
    13    23    25    2
    14     3     4   ar
    15     4     5   ar
    16     5     7    1
    17     7     8   ar
    18     8     9   ar
    19     9    10    1
    20     9    11   ar
    21    11    12   ar
    22    12    13    1
    23     5     6   ar
    24    18    19   ar
    25    19    14   ar
    26     6     1   ar
    27    12     7   ar
    28    22    26    1
@<TRIPOS>MOLECULE
*****
 26 28 0 0 0
SMALL
GASTEIGER

@<TRIPOS>ATOM
      1 C         139.4738  141.5031  160.5201 C.ar    1  UNL1        0.0888
      2 C         140.6442  142.4104  160.7586 C.ar    1  UNL1        0.0538
      3 C         141.3881  142.3486  162.0597 C.ar    1  UNL1        0.1388
      4 N         140.9616  141.3795  163.1223 N.ar    1  UNL1       -0.1948
      5 C         139.7911  140.4722  162.8836 C.ar    1  UNL1        0.2539
      6 N         139.0473  140.5340  161.5826 N.ar    1  UNL1       -0.2098
      7 N         139.3646  139.5031  163.9461 N.ar    1  UNL1       -0.2008
      8 N         138.4653  139.8074  165.1075 N.ar    1  UNL1       -0.1673
      9 C         138.3074  138.5519  165.9129 C.ar    1  UNL1        0.0806
     10 C         137.4911  138.4029  167.1625 C.3     1  UNL1        0.0540
     11 C         139.1091  137.4716  165.2495 C.ar    1  UNL1        0.0313
     12 C         139.7625  138.0595  164.0339 C.ar    1  UNL1        0.0651
     13 C         140.6567  137.3315  163.0746 C.3     1  UNL1        0.0523
     14 C         138.1116  142.8356  157.0388 C.ar    1  UNL1        0.1579
     15 C         137.2421  141.6885  156.6169 C.ar    1  UNL1        0.1356
     16 N         137.1164  140.4796  157.4960 N.ar    1  UNL1       -0.2391
     17 C         137.8603  140.4178  158.7970 C.ar    1  UNL1        0.1006
     18 C         138.7299  141.5649  159.2190 C.ar    1  UNL1        0.0400
     19 C         138.8555  142.7738  158.3399 C.ar    1  UNL1        0.0416
     20 C         137.2993  144.2325  155.0044 C.3     1  UNL1        0.2525
     21 O         138.2373  144.0445  156.1597 O.3     1  UNL1       -0.4699
     22 N         142.5585  143.2559  162.2983 N.am    1  UNL1       -0.2692
     23 C         142.4830  144.3147  163.3582 C.2     1  UNL1        0.2277
     24 C         143.6533  145.2220  163.5967 C.3     1  UNL1        0.0950
     25 O         141.2370  144.4661  164.1795 O.2     1  UNL1       -0.2747
     26 H         143.3763  143.1565  161.7592 H       1  UNL1        0.1563
@<TRIPOS>BOND
     1    20    21    1
     2    21    14    1
     3    14    15   ar
     4    15    16   ar
     5    16    17   ar
     6    17    18   ar
     7    18     1    1
     8     1     2   ar
     9     2     3   ar
    10     3    22    1
    11    22    23   am
    12    23    24    1
    13    23    25    2
    14     3     4   ar
    15     4     5   ar
    16     5     7    1
    17     7     8   ar
    18     8     9   ar
    19     9    10    1
    20     9    11   ar
    21    11    12   ar
    22    12    13    1
    23     5     6   ar
    24    18    19   ar
    25    19    14   ar
    26     6     1   ar
    27    12     7   ar
    28    22    26    1
@<TRIPOS>MOLECULE
*****
 26 28 0 0 0
SMALL
GASTEIGER

@<TRIPOS>ATOM
      1 C         139.6598  139.0856  157.3802 C.ar    1  UNL1        0.0888
      2 C         138.8077  139.5326  156.2296 C.ar    1  UNL1        0.0538
      3 C         137.7342  140.5579  156.4452 C.ar    1  UNL1        0.1388
      4 N         137.5129  141.1361  157.8114 N.ar    1  UNL1       -0.1948
      5 C         138.3651  140.6891  158.9621 C.ar    1  UNL1        0.2539
      6 N         139.4385  139.6638  158.7465 N.ar    1  UNL1       -0.2098
      7 N         138.1438  141.2673  160.3283 N.ar    1  UNL1       -0.2008
      8 N         138.1967  142.7223  160.6891 N.ar    1  UNL1       -0.1673
      9 C         137.9163  142.8464  162.1575 C.ar    1  UNL1        0.0806
     10 C         137.8702  144.1244  162.9414 C.3     1  UNL1        0.0540
     11 C         137.6901  141.4680  162.7042 C.ar    1  UNL1        0.0313
     12 C         137.8307  140.4921  161.5737 C.ar    1  UNL1        0.0651
     13 C         137.6840  139.0025  161.6716 C.3     1  UNL1        0.0523
     14 C         141.6034  135.9349  155.9498 C.ar    1  UNL1        0.1579
     15 C         142.8802  136.0097  156.7335 C.ar    1  UNL1        0.1356
     16 N         143.0836  137.1098  157.7327 N.ar    1  UNL1       -0.2391
     17 C         142.0101  138.1351  157.9483 C.ar    1  UNL1        0.1006
     18 C         140.7333  138.0603  157.1647 C.ar    1  UNL1        0.0400
     19 C         140.5300  136.9602  156.1654 C.ar    1  UNL1        0.0416
     20 C         141.4774  133.4018  155.3867 C.3     1  UNL1        0.2525
     21 O         141.4000  134.8348  154.9506 O.3     1  UNL1       -0.4699
     22 N         136.8821  141.0049  155.2945 N.am    1  UNL1       -0.2692
     23 C         135.4255  140.6488  155.2572 C.2     1  UNL1        0.2277
     24 C         134.5733  141.0958  154.1065 C.3     1  UNL1        0.0950
     25 O         134.8210  139.8456  156.3704 O.2     1  UNL1       -0.2747
     26 H         137.2788  141.5321  154.5638 H       1  UNL1        0.1563
@<TRIPOS>BOND
     1    20    21    1
     2    21    14    1
     3    14    15   ar
     4    15    16   ar
     5    16    17   ar
     6    17    18   ar
     7    18     1    1
     8     1     2   ar
     9     2     3   ar
    10     3    22    1
    11    22    23   am
    12    23    24    1
    13    23    25    2
    14     3     4   ar
    15     4     5   ar
    16     5     7    1
    17     7     8   ar
    18     8     9   ar
    19     9    10    1
    20     9    11   ar
    21    11    12   ar
    22    12    13    1
    23     5     6   ar
    24    18    19   ar
    25    19    14   ar
    26     6     1   ar
    27    12     7   ar
    28    22    26    1
@<TRIPOS>MOLECULE
*****
 26 28 0 0 0
SMALL
GASTEIGER

@<TRIPOS>ATOM
      1 C         139.0318  140.3494  159.7078 C.ar    1  UNL1        0.0888
      2 C         138.9594  141.8458  159.7798 C.ar    1  UNL1        0.0538
      3 C         138.8529  142.5284  161.1113 C.ar    1  UNL1        0.1388
      4 N         138.8187  141.7144  162.3708 N.ar    1  UNL1       -0.1948
      5 C         138.8911  140.2178  162.2987 C.ar    1  UNL1        0.2539
      6 N         138.9976  139.5353  160.9672 N.ar    1  UNL1       -0.2098
      7 N         138.8569  139.4038  163.5581 N.ar    1  UNL1       -0.2008
      8 N         138.0294  139.6959  164.7746 N.ar    1  UNL1       -0.1673
      9 C         138.3053  138.6273  165.7905 C.ar    1  UNL1        0.0806
     10 C         137.6909  138.5287  167.1554 C.3     1  UNL1        0.0540
     11 C         139.3034  137.6748  165.2019 C.ar    1  UNL1        0.0313
     12 C         139.6443  138.1547  163.8222 C.ar    1  UNL1        0.0651
     13 C         140.6041  137.5003  162.8733 C.3     1  UNL1        0.0523
     14 C         140.2142  137.8551  156.8563 C.ar    1  UNL1        0.1579
     15 C         139.3515  138.3018  155.7134 C.ar    1  UNL1        0.1356
     16 N         138.3822  139.4309  155.9019 N.ar    1  UNL1       -0.2391
     17 C         138.2756  140.1134  157.2334 C.ar    1  UNL1        0.1006
     18 C         139.1383  139.6668  158.3763 C.ar    1  UNL1        0.0400
     19 C         140.1076  138.5377  158.1877 C.ar    1  UNL1        0.0416
     20 C         142.5597  136.8125  157.2580 C.3     1  UNL1        0.2525
     21 O         141.1834  136.7260  156.6677 O.3     1  UNL1       -0.4699
     22 N         138.7806  144.0249  161.1834 N.am    1  UNL1       -0.2692
     23 C         139.9262  144.8044  161.7578 C.2     1  UNL1        0.2277
     24 C         139.8538  146.3009  161.8298 C.3     1  UNL1        0.0950
     25 O         141.1441  144.0874  162.2602 O.2     1  UNL1       -0.2747
     26 H         137.9812  144.4955  160.8536 H       1  UNL1        0.1563
@<TRIPOS>BOND
     1    20    21    1
     2    21    14    1
     3    14    15   ar
     4    15    16   ar
     5    16    17   ar
     6    17    18   ar
     7    18     1    1
     8     1     2   ar
     9     2     3   ar
    10     3    22    1
    11    22    23   am
    12    23    24    1
    13    23    25    2
    14     3     4   ar
    15     4     5   ar
    16     5     7    1
    17     7     8   ar
    18     8     9   ar
    19     9    10    1
    20     9    11   ar
    21    11    12   ar
    22    12    13    1
    23     5     6   ar
    24    18    19   ar
    25    19    14   ar
    26     6     1   ar
    27    12     7   ar
    28    22    26    1
