@<TRIPOS>MOLECULE
*****
 32 35 0 0 0
SMALL
GASTEIGER

@<TRIPOS>ATOM
      1 C         139.8280  141.4078  160.2538 C.3     1  UNL1        0.1200
      2 C         138.8210  142.3926  159.7380 C.3     1  UNL1        0.2250
      3 O         138.1126  143.3094  160.6907 O.3     1  UNL1       -0.4739
      4 C         138.4113  143.2415  162.1591 C.ar    1  UNL1        0.1358
      5 C         137.7029  144.1584  163.1117 C.ar    1  UNL1        0.0367
      6 C         138.0016  144.0905  164.5801 C.ar    1  UNL1        0.0044
      7 C         139.0088  143.1057  165.0958 C.ar    1  UNL1        0.0144
      8 C         139.7171  142.1888  164.1432 C.ar    1  UNL1        0.0468
      9 C         139.4184  142.2568  162.6748 C.ar    1  UNL1        0.0268
     10 C         140.1267  141.3399  161.7221 C.3     1  UNL1        0.0541
     11 N         140.7241  141.2041  164.6589 N.pl3   1  UNL1       -0.3048
     12 C         142.1589  141.6119  164.8174 C.3     1  UNL1        0.1081
     13 C         143.1660  140.6270  165.3332 C.3     1  UNL1        0.0938
     14 N         142.7383  139.2344  165.6904 N.3     1  UNL1       -0.2686
     15 C         143.7453  138.2496  166.2062 C.3     1  UNL1        0.0897
     16 C         141.3035  138.8266  165.5319 C.3     1  UNL1        0.0938
     17 C         140.2964  139.8114  165.0162 C.3     1  UNL1        0.1081
     18 C         139.9399  139.1577  158.9598 C.2     1  UNL1        0.2459
     19 O         138.6349  138.7412  159.5711 O.2     1  UNL1       -0.2701
     20 N         140.5364  140.4909  159.3011 N.am    1  UNL1       -0.2986
     21 H         141.3929  140.7642  158.8999 H       1  UNL1        0.1498
     22 C         142.0651  136.4070  156.1020 C.ar    1  UNL1        0.1386
     23 C         140.6135  136.7250  155.8974 C.ar    1  UNL1        0.0370
     24 C         139.9051  137.6419  156.8500 C.ar    1  UNL1        0.0076
     25 C         140.6483  138.2407  158.0071 C.ar    1  UNL1        0.0536
     26 C         142.0999  137.9227  158.2117 C.ar    1  UNL1        0.0076
     27 C         142.8083  137.0059  157.2591 C.ar    1  UNL1        0.0370
     28 O         142.7735  135.4901  155.1493 O.3     1  UNL1       -0.4755
     29 C         142.1411  134.1901  154.7494 C.3     1  UNL1        0.2054
     30 C         141.9052  133.1233  155.7772 C.3     1  UNL1        0.0473
     31 C         144.3787  132.4583  156.2127 C.3     1  UNL1        0.0001
     32 C         143.0002  132.7445  156.7300 C.3     1  UNL1        0.0038
@<TRIPOS>BOND
     1    31    32    1
     2    32    30    1
     3    30    29    1
     4    29    28    1
     5    28    22    1
     6    22    23   ar
     7    23    24   ar
     8    24    25   ar
     9    25    18    1
    10    18    19    2
    11    18    20   am
    12     1    20    1
    13     1     2    1
    14     2     3    1
    15     3     4    1
    16     4     5   ar
    17     5     6   ar
    18     6     7   ar
    19     7     8   ar
    20     8    11    1
    21    11    12    1
    22    12    13    1
    23    13    14    1
    24    14    15    1
    25    14    16    1
    26    16    17    1
    27     8     9   ar
    28     9    10    1
    29    25    26   ar
    30    26    27   ar
    31    27    22   ar
    32    10     1    1
    33     9     4   ar
    34    17    11    1
    35    20    21    1
@<TRIPOS>MOLECULE
*****
 32 35 0 0 0
SMALL
GASTEIGER

@<TRIPOS>ATOM
      1 C         142.4471  144.3941  162.4800 C.3     1  UNL1        0.1200
      2 C         143.4951  145.0400  163.3371 C.3     1  UNL1        0.2250
      3 O         143.8729  144.4243  164.6517 O.3     1  UNL1       -0.4739
      4 C         143.2027  143.1628  165.1092 C.ar    1  UNL1        0.1358
      5 C         143.5805  142.5472  166.4239 C.ar    1  UNL1        0.0367
      6 C         142.9103  141.2856  166.8815 C.ar    1  UNL1        0.0044
      7 C         141.8623  140.6397  166.0244 C.ar    1  UNL1        0.0144
      8 C         141.4845  141.2554  164.7098 C.ar    1  UNL1        0.0468
      9 C         142.1547  142.5169  164.2522 C.ar    1  UNL1        0.0268
     10 C         141.7769  143.1326  162.9376 C.3     1  UNL1        0.0541
     11 N         140.4365  140.6095  163.8528 N.pl3   1  UNL1       -0.3048
     12 C         140.8336  139.6068  162.8102 C.3     1  UNL1        0.1081
     13 C         139.7855  138.9609  161.9532 C.3     1  UNL1        0.0938
     14 N         138.3405  139.3177  162.1387 N.3     1  UNL1       -0.2686
     15 C         137.2924  138.6718  161.2817 C.3     1  UNL1        0.0897
     16 C         137.9434  140.3204  163.1813 C.3     1  UNL1        0.0938
     17 C         138.9914  140.9663  164.0383 C.3     1  UNL1        0.1081
     18 C         142.0467  144.1698  159.9228 C.2     1  UNL1        0.2459
     19 O         142.4020  142.7143  159.9948 O.2     1  UNL1       -0.2701
     20 N         142.0693  145.0097  161.1654 N.am    1  UNL1       -0.2986
     21 H         141.8361  145.9650  161.1181 H       1  UNL1        0.1498
     22 C         140.9132  146.0167  155.9789 C.ar    1  UNL1        0.1386
     23 C         142.1387  145.1578  156.0802 C.ar    1  UNL1        0.0370
     24 C         142.5166  144.5422  157.3948 C.ar    1  UNL1        0.0076
     25 C         141.6689  144.7855  158.6081 C.ar    1  UNL1        0.0536
     26 C         140.4434  145.6444  158.5068 C.ar    1  UNL1        0.0076
     27 C         140.0655  146.2600  157.1922 C.ar    1  UNL1        0.0370
     28 O         140.5354  146.6324  154.6643 O.3     1  UNL1       -0.4755
     29 C         139.4622  147.6787  154.6069 C.3     1  UNL1        0.2054
     30 C         139.8010  149.0783  154.1869 C.3     1  UNL1        0.0473
     31 C         138.3721  150.0204  156.1416 C.3     1  UNL1        0.0001
     32 C         139.1908  150.2454  154.9051 C.3     1  UNL1        0.0038
@<TRIPOS>BOND
     1    31    32    1
     2    32    30    1
     3    30    29    1
     4    29    28    1
     5    28    22    1
     6    22    23   ar
     7    23    24   ar
     8    24    25   ar
     9    25    18    1
    10    18    19    2
    11    18    20   am
    12     1    20    1
    13     1     2    1
    14     2     3    1
    15     3     4    1
    16     4     5   ar
    17     5     6   ar
    18     6     7   ar
    19     7     8   ar
    20     8    11    1
    21    11    12    1
    22    12    13    1
    23    13    14    1
    24    14    15    1
    25    14    16    1
    26    16    17    1
    27     8     9   ar
    28     9    10    1
    29    25    26   ar
    30    26    27   ar
    31    27    22   ar
    32    10     1    1
    33     9     4   ar
    34    17    11    1
    35    20    21    1
@<TRIPOS>MOLECULE
*****
 32 35 0 0 0
SMALL
GASTEIGER

@<TRIPOS>ATOM
      1 C         140.0675  143.5801  162.0733 C.3     1  UNL1        0.1200
      2 C         139.6553  145.0220  162.1026 C.3     1  UNL1        0.2250
      3 O         139.6969  145.8396  160.8457 O.3     1  UNL1       -0.4739
      4 C         140.1508  145.2153  159.5596 C.ar    1  UNL1        0.1358
      5 C         140.1924  146.0330  158.3027 C.ar    1  UNL1        0.0367
      6 C         140.6464  145.4087  157.0165 C.ar    1  UNL1        0.0044
      7 C         141.0586  143.9667  156.9873 C.ar    1  UNL1        0.0144
      8 C         141.0170  143.1491  158.2442 C.ar    1  UNL1        0.0468
      9 C         140.5631  143.7734  159.5303 C.ar    1  UNL1        0.0268
     10 C         140.5215  142.9558  160.7872 C.3     1  UNL1        0.0541
     11 N         141.4293  141.7072  158.2149 N.pl3   1  UNL1       -0.3048
     12 C         142.8606  141.3312  158.4600 C.3     1  UNL1        0.1081
     13 C         143.2728  139.8892  158.4307 C.3     1  UNL1        0.0938
     14 N         142.2538  138.8233  158.1563 N.3     1  UNL1       -0.2686
     15 C         142.6660  137.3813  158.1270 C.3     1  UNL1        0.0897
     16 C         140.8225  139.1993  157.9112 C.3     1  UNL1        0.0938
     17 C         140.4102  140.6412  157.9404 C.3     1  UNL1        0.1081
     18 C         141.1032  142.9181  164.3623 C.2     1  UNL1        0.2459
     19 O         142.2222  143.8914  164.1374 O.2     1  UNL1       -0.2701
     20 N         140.0259  142.7625  163.3303 N.am    1  UNL1       -0.2986
     21 H         139.2915  142.1237  163.4778 H       1  UNL1        0.1498
     22 C         140.9783  140.4652  168.1329 C.ar    1  UNL1        0.1386
     23 C         142.2676  141.0879  167.6856 C.ar    1  UNL1        0.0370
     24 C         142.3092  141.9055  166.4287 C.ar    1  UNL1        0.0076
     25 C         141.0616  142.1005  165.6192 C.ar    1  UNL1        0.0536
     26 C         139.7723  141.4778  166.0665 C.ar    1  UNL1        0.0076
     27 C         139.7307  140.6602  167.3233 C.ar    1  UNL1        0.0370
     28 O         140.9366  139.6475  169.3898 O.3     1  UNL1       -0.4755
     29 C         140.4858  140.2727  170.6766 C.3     1  UNL1        0.2054
     30 C         140.8225  141.7039  170.9734 C.3     1  UNL1        0.0473
     31 C         140.3626  144.0274  169.9058 C.3     1  UNL1        0.0001
     32 C         139.8628  142.7937  170.5972 C.3     1  UNL1        0.0038
@<TRIPOS>BOND
     1    31    32    1
     2    32    30    1
     3    30    29    1
     4    29    28    1
     5    28    22    1
     6    22    23   ar
     7    23    24   ar
     8    24    25   ar
     9    25    18    1
    10    18    19    2
    11    18    20   am
    12     1    20    1
    13     1     2    1
    14     2     3    1
    15     3     4    1
    16     4     5   ar
    17     5     6   ar
    18     6     7   ar
    19     7     8   ar
    20     8    11    1
    21    11    12    1
    22    12    13    1
    23    13    14    1
    24    14    15    1
    25    14    16    1
    26    16    17    1
    27     8     9   ar
    28     9    10    1
    29    25    26   ar
    30    26    27   ar
    31    27    22   ar
    32    10     1    1
    33     9     4   ar
    34    17    11    1
    35    20    21    1
@<TRIPOS>MOLECULE
*****
 32 35 0 0 0
SMALL
GASTEIGER

@<TRIPOS>ATOM
      1 C         141.9360  139.3685  163.8233 C.3     1  UNL1        0.1200
      2 C         142.2253  138.3749  164.9090 C.3     1  UNL1        0.2250
      3 O         142.0163  138.7517  166.3458 O.3     1  UNL1       -0.4739
      4 C         141.5178  140.1222  166.6968 C.ar    1  UNL1        0.1358
      5 C         141.3087  140.4991  168.1336 C.ar    1  UNL1        0.0367
      6 C         140.8103  141.8696  168.4846 C.ar    1  UNL1        0.0044
      7 C         140.5209  142.8633  167.3988 C.ar    1  UNL1        0.0144
      8 C         140.7300  142.4865  165.9620 C.ar    1  UNL1        0.0468
      9 C         141.2285  141.1159  165.6110 C.ar    1  UNL1        0.0268
     10 C         141.4376  140.7391  164.1743 C.3     1  UNL1        0.0541
     11 N         140.4407  143.4801  164.8763 N.pl3   1  UNL1       -0.3048
     12 C         141.5581  144.2783  164.2729 C.3     1  UNL1        0.1081
     13 C         141.2687  145.2720  163.1871 C.3     1  UNL1        0.0938
     14 N         139.8619  145.4675  162.7048 N.3     1  UNL1       -0.2686
     15 C         139.5725  146.4613  161.6191 C.3     1  UNL1        0.0897
     16 C         138.7445  144.6693  163.3083 C.3     1  UNL1        0.0938
     17 C         139.0338  143.6757  164.3940 C.3     1  UNL1        0.1081
     18 C         140.9643  138.8061  161.4804 C.2     1  UNL1        0.2459
     19 O         139.5743  138.9972  162.0109 O.2     1  UNL1       -0.2701
     20 N         142.1451  138.9917  162.3865 N.am    1  UNL1       -0.2986
     21 H         143.0573  138.8662  162.0383 H       1  UNL1        0.1498
     22 C         141.5916  137.6756  157.1701 C.ar    1  UNL1        0.1386
     23 C         140.2278  138.0755  157.6497 C.ar    1  UNL1        0.0370
     24 C         140.0186  138.4523  159.0864 C.ar    1  UNL1        0.0076
     25 C         141.1733  138.4292  160.0435 C.ar    1  UNL1        0.0536
     26 C         142.5372  138.0293  159.5639 C.ar    1  UNL1        0.0076
     27 C         142.7463  137.6525  158.1272 C.ar    1  UNL1        0.0370
     28 O         141.8007  137.2988  155.7333 O.3     1  UNL1       -0.4755
     29 C         143.1856  137.0361  155.2207 C.3     1  UNL1        0.2054
     30 C         143.7567  135.6503  155.2793 C.3     1  UNL1        0.0473
     31 C         143.3042  134.0613  157.2845 C.3     1  UNL1        0.0001
     32 C         142.9658  134.5389  155.9034 C.3     1  UNL1        0.0038
@<TRIPOS>BOND
     1    31    32    1
     2    32    30    1
     3    30    29    1
     4    29    28    1
     5    28    22    1
     6    22    23   ar
     7    23    24   ar
     8    24    25   ar
     9    25    18    1
    10    18    19    2
    11    18    20   am
    12     1    20    1
    13     1     2    1
    14     2     3    1
    15     3     4    1
    16     4     5   ar
    17     5     6   ar
    18     6     7   ar
    19     7     8   ar
    20     8    11    1
    21    11    12    1
    22    12    13    1
    23    13    14    1
    24    14    15    1
    25    14    16    1
    26    16    17    1
    27     8     9   ar
    28     9    10    1
    29    25    26   ar
    30    26    27   ar
    31    27    22   ar
    32    10     1    1
    33     9     4   ar
    34    17    11    1
    35    20    21    1
@<TRIPOS>MOLECULE
*****
 32 35 0 0 0
SMALL
GASTEIGER

@<TRIPOS>ATOM
      1 C         143.0610  140.3617  158.9543 C.3     1  UNL1        0.1200
      2 C         143.8252  141.6452  159.0909 C.3     1  UNL1        0.2250
      3 O         144.7510  142.0868  157.9965 O.3     1  UNL1       -0.4739
      4 C         144.9127  141.2450  156.7656 C.ar    1  UNL1        0.1358
      5 C         145.8386  141.6867  155.6711 C.ar    1  UNL1        0.0367
      6 C         146.0002  140.8449  154.4402 C.ar    1  UNL1        0.0044
      7 C         145.2360  139.5614  154.3037 C.ar    1  UNL1        0.0144
      8 C         144.3101  139.1197  155.3981 C.ar    1  UNL1        0.0468
      9 C         144.1485  139.9615  156.6290 C.ar    1  UNL1        0.0268
     10 C         143.2226  139.5199  157.7234 C.3     1  UNL1        0.0541
     11 N         143.5459  137.8363  155.2615 N.pl3   1  UNL1       -0.3048
     12 C         142.1364  137.8536  154.7487 C.3     1  UNL1        0.1081
     13 C         141.3722  136.5700  154.6121 C.3     1  UNL1        0.0938
     14 N         142.0175  135.2693  154.9884 N.3     1  UNL1       -0.2686
     15 C         141.2533  133.9857  154.8519 C.3     1  UNL1        0.0897
     16 C         143.4270  135.2520  155.5012 C.3     1  UNL1        0.0938
     17 C         144.1912  136.5354  155.6378 C.3     1  UNL1        0.1081
     18 C         142.5637  138.8484  161.0068 C.2     1  UNL1        0.2459
     19 O         143.9181  138.2184  160.8705 O.2     1  UNL1       -0.2701
     20 N         142.1351  139.9200  160.0488 N.am    1  UNL1       -0.2986
     21 H         141.2461  140.3335  160.1382 H       1  UNL1        0.1498
     22 C         139.7861  137.5233  164.2900 C.ar    1  UNL1        0.1386
     23 C         139.2411  137.8405  162.9290 C.ar    1  UNL1        0.0370
     24 C         140.1669  138.2822  161.8346 C.ar    1  UNL1        0.0076
     25 C         141.6378  138.4067  162.1012 C.ar    1  UNL1        0.0536
     26 C         142.1828  138.0895  163.4622 C.ar    1  UNL1        0.0076
     27 C         141.2570  137.6479  164.5566 C.ar    1  UNL1        0.0370
     28 O         138.8602  137.0816  165.3844 O.3     1  UNL1       -0.4755
     29 C         138.1196  138.1016  166.1974 C.3     1  UNL1        0.2054
     30 C         138.5771  139.5301  166.2058 C.3     1  UNL1        0.0473
     31 C         139.4471  140.1662  168.5698 C.3     1  UNL1        0.0001
     32 C         139.6995  139.9529  167.1066 C.3     1  UNL1        0.0038
@<TRIPOS>BOND
     1    31    32    1
     2    32    30    1
     3    30    29    1
     4    29    28    1
     5    28    22    1
     6    22    23   ar
     7    23    24   ar
     8    24    25   ar
     9    25    18    1
    10    18    19    2
    11    18    20   am
    12     1    20    1
    13     1     2    1
    14     2     3    1
    15     3     4    1
    16     4     5   ar
    17     5     6   ar
    18     6     7   ar
    19     7     8   ar
    20     8    11    1
    21    11    12    1
    22    12    13    1
    23    13    14    1
    24    14    15    1
    25    14    16    1
    26    16    17    1
    27     8     9   ar
    28     9    10    1
    29    25    26   ar
    30    26    27   ar
    31    27    22   ar
    32    10     1    1
    33     9     4   ar
    34    17    11    1
    35    20    21    1
@<TRIPOS>MOLECULE
*****
 32 35 0 0 0
SMALL
GASTEIGER

@<TRIPOS>ATOM
      1 C         140.2761  143.7816  161.2486 C.3     1  UNL1        0.1200
      2 C         139.8925  145.2307  161.1947 C.3     1  UNL1        0.2250
      3 O         139.8730  145.9529  159.8802 O.3     1  UNL1       -0.4739
      4 C         140.2371  145.2260  158.6196 C.ar    1  UNL1        0.1358
      5 C         140.2175  145.9483  157.3050 C.ar    1  UNL1        0.0367
      6 C         140.5816  145.2214  156.0444 C.ar    1  UNL1        0.0044
      7 C         140.9652  143.7722  156.0984 C.ar    1  UNL1        0.0144
      8 C         140.9847  143.0501  157.4129 C.ar    1  UNL1        0.0468
      9 C         140.6206  143.7769  158.6735 C.ar    1  UNL1        0.0268
     10 C         140.6402  143.0547  159.9880 C.3     1  UNL1        0.0541
     11 N         141.3683  141.6010  157.4669 N.pl3   1  UNL1       -0.3048
     12 C         140.3177  140.5409  157.3166 C.3     1  UNL1        0.1081
     13 C         140.7013  139.0918  157.3705 C.3     1  UNL1        0.0938
     14 N         142.1355  138.7027  157.5747 N.3     1  UNL1       -0.2686
     15 C         142.5191  137.2535  157.6287 C.3     1  UNL1        0.0897
     16 C         143.1861  139.7627  157.7250 C.3     1  UNL1        0.0938
     17 C         142.8025  141.2118  157.6711 C.3     1  UNL1        0.1081
     18 C         139.0674  142.3459  163.0453 C.2     1  UNL1        0.2459
     19 O         137.8197  142.3546  162.2128 O.2     1  UNL1       -0.2701
     20 N         140.2956  143.0594  162.5632 N.am    1  UNL1       -0.2986
     21 H         141.1146  143.0536  163.1096 H       1  UNL1        0.1498
     22 C         139.1260  140.1790  166.9888 C.ar    1  UNL1        0.1386
     23 C         139.9721  141.4019  166.7923 C.ar    1  UNL1        0.0370
     24 C         139.9526  142.1242  165.4778 C.ar    1  UNL1        0.0076
     25 C         139.0870  141.6236  164.3598 C.ar    1  UNL1        0.0536
     26 C         138.2408  140.4007  164.5563 C.ar    1  UNL1        0.0076
     27 C         138.2603  139.6784  165.8708 C.ar    1  UNL1        0.0370
     28 O         139.1455  139.4568  168.3033 O.3     1  UNL1       -0.4755
     29 C         139.4395  140.2083  169.5677 C.3     1  UNL1        0.2054
     30 C         140.6606  139.8741  170.3721 C.3     1  UNL1        0.0473
     31 C         142.8673  140.6333  169.2300 C.3     1  UNL1        0.0001
     32 C         141.9469  139.5368  169.6780 C.3     1  UNL1        0.0038
@<TRIPOS>BOND
     1    31    32    1
     2    32    30    1
     3    30    29    1
     4    29    28    1
     5    28    22    1
     6    22    23   ar
     7    23    24   ar
     8    24    25   ar
     9    25    18    1
    10    18    19    2
    11    18    20   am
    12     1    20    1
    13     1     2    1
    14     2     3    1
    15     3     4    1
    16     4     5   ar
    17     5     6   ar
    18     6     7   ar
    19     7     8   ar
    20     8    11    1
    21    11    12    1
    22    12    13    1
    23    13    14    1
    24    14    15    1
    25    14    16    1
    26    16    17    1
    27     8     9   ar
    28     9    10    1
    29    25    26   ar
    30    26    27   ar
    31    27    22   ar
    32    10     1    1
    33     9     4   ar
    34    17    11    1
    35    20    21    1
@<TRIPOS>MOLECULE
*****
 32 35 0 0 0
SMALL
GASTEIGER

@<TRIPOS>ATOM
      1 C         136.0556  141.5335  155.4853 C.3     1  UNL1        0.1200
      2 C         136.6146  141.4959  154.0939 C.3     1  UNL1        0.2250
      3 O         138.0979  141.4232  153.8833 O.3     1  UNL1       -0.4739
      4 C         139.0222  141.3881  155.0641 C.ar    1  UNL1        0.1358
      5 C         140.5056  141.3153  154.8535 C.ar    1  UNL1        0.0367
      6 C         141.4300  141.2802  156.0343 C.ar    1  UNL1        0.0044
      7 C         140.8709  141.3178  157.4258 C.ar    1  UNL1        0.0144
      8 C         139.3876  141.3905  157.6364 C.ar    1  UNL1        0.0468
      9 C         138.4633  141.4256  156.4555 C.ar    1  UNL1        0.0268
     10 C         136.9799  141.4983  156.6661 C.3     1  UNL1        0.0541
     11 N         138.8286  141.4281  159.0278 N.pl3   1  UNL1       -0.3048
     12 C         138.2761  140.1791  159.6481 C.3     1  UNL1        0.1081
     13 C         137.7171  140.2167  161.0396 C.3     1  UNL1        0.0938
     14 N         137.7107  141.5033  161.8107 N.3     1  UNL1       -0.2686
     15 C         137.1517  141.5409  163.2022 C.3     1  UNL1        0.0897
     16 C         138.2632  142.7522  161.1904 C.3     1  UNL1        0.0938
     17 C         138.8222  142.7147  159.7990 C.3     1  UNL1        0.1081
     18 C         133.7817  140.3485  155.9041 C.2     1  UNL1        0.2459
     19 O         134.4745  139.0181  155.9016 O.2     1  UNL1       -0.2701
     20 N         134.5722  141.6062  155.6960 N.am    1  UNL1       -0.2986
     21 H         134.1174  142.4794  155.6977 H       1  UNL1        0.1498
     22 C         129.3316  140.5666  156.5361 C.ar    1  UNL1        0.1386
     23 C         129.9926  141.4708  155.5384 C.ar    1  UNL1        0.0370
     24 C         131.4760  141.3981  155.3277 C.ar    1  UNL1        0.0076
     25 C         132.2983  140.4213  156.1148 C.ar    1  UNL1        0.0536
     26 C         131.6372  139.5171  157.1125 C.ar    1  UNL1        0.0076
     27 C         130.1539  139.5898  157.3232 C.ar    1  UNL1        0.0370
     28 O         127.8482  140.6393  156.7468 O.3     1  UNL1       -0.4755
     29 C         127.2404  140.0820  157.9997 C.3     1  UNL1        0.2054
     30 C         127.0163  140.9731  159.1852 C.3     1  UNL1        0.0473
     31 C         127.7991  139.1940  160.9092 C.3     1  UNL1        0.0001
     32 C         127.6333  140.6300  160.5088 C.3     1  UNL1        0.0038
@<TRIPOS>BOND
     1    31    32    1
     2    32    30    1
     3    30    29    1
     4    29    28    1
     5    28    22    1
     6    22    23   ar
     7    23    24   ar
     8    24    25   ar
     9    25    18    1
    10    18    19    2
    11    18    20   am
    12     1    20    1
    13     1     2    1
    14     2     3    1
    15     3     4    1
    16     4     5   ar
    17     5     6   ar
    18     6     7   ar
    19     7     8   ar
    20     8    11    1
    21    11    12    1
    22    12    13    1
    23    13    14    1
    24    14    15    1
    25    14    16    1
    26    16    17    1
    27     8     9   ar
    28     9    10    1
    29    25    26   ar
    30    26    27   ar
    31    27    22   ar
    32    10     1    1
    33     9     4   ar
    34    17    11    1
    35    20    21    1
@<TRIPOS>MOLECULE
*****
 32 35 0 0 0
SMALL
GASTEIGER

@<TRIPOS>ATOM
      1 C         140.1026  138.8382  161.7817 C.3     1  UNL1        0.1200
      2 C         139.2123  137.6742  162.1018 C.3     1  UNL1        0.2250
      3 O         138.6388  137.5253  163.4797 O.3     1  UNL1       -0.4739
      4 C         138.9555  138.5404  164.5376 C.ar    1  UNL1        0.1358
      5 C         138.3818  138.3915  165.9157 C.ar    1  UNL1        0.0367
      6 C         138.6985  139.4066  166.9736 C.ar    1  UNL1        0.0044
      7 C         139.5888  140.5707  166.6535 C.ar    1  UNL1        0.0144
      8 C         140.1624  140.7196  165.2756 C.ar    1  UNL1        0.0468
      9 C         139.8457  139.7045  164.2176 C.ar    1  UNL1        0.0268
     10 C         140.4193  139.8534  162.8397 C.3     1  UNL1        0.0541
     11 N         141.0526  141.8836  164.9555 N.pl3   1  UNL1       -0.3048
     12 C         140.4619  143.1555  164.4232 C.3     1  UNL1        0.1081
     13 C         141.3523  144.3196  164.1032 C.3     1  UNL1        0.0938
     14 N         142.8332  144.2117  164.3155 N.3     1  UNL1       -0.2686
     15 C         143.7236  145.3758  163.9955 C.3     1  UNL1        0.0897
     16 C         143.4239  142.9398  164.8478 C.3     1  UNL1        0.0938
     17 C         142.5337  141.7758  165.1678 C.3     1  UNL1        0.1081
     18 C         142.0101  138.3837  160.0773 C.2     1  UNL1        0.2459
     19 O         142.7704  137.6313  161.1289 O.2     1  UNL1       -0.2701
     20 N         140.6762  138.9872  160.4037 N.am    1  UNL1       -0.2986
     21 H         140.1772  139.4810  159.7135 H       1  UNL1        0.1498
     22 C         143.7309  138.8306  155.9434 C.ar    1  UNL1        0.1386
     23 C         143.1519  137.5165  156.3768 C.ar    1  UNL1        0.0370
     24 C         142.5783  137.3675  157.7547 C.ar    1  UNL1        0.0076
     25 C         142.5837  138.5327  158.6993 C.ar    1  UNL1        0.0536
     26 C         143.1626  139.8468  158.2660 C.ar    1  UNL1        0.0076
     27 C         143.7362  139.9958  156.8880 C.ar    1  UNL1        0.0370
     28 O         144.3045  138.9796  154.5654 O.3     1  UNL1       -0.4755
     29 C         144.6001  140.3451  154.0197 C.3     1  UNL1        0.2054
     30 C         145.9902  140.9020  154.1048 C.3     1  UNL1        0.0473
     31 C         147.0953  142.1443  156.1012 C.3     1  UNL1        0.0001
     32 C         146.2452  142.1694  154.8656 C.3     1  UNL1        0.0038
@<TRIPOS>BOND
     1    31    32    1
     2    32    30    1
     3    30    29    1
     4    29    28    1
     5    28    22    1
     6    22    23   ar
     7    23    24   ar
     8    24    25   ar
     9    25    18    1
    10    18    19    2
    11    18    20   am
    12     1    20    1
    13     1     2    1
    14     2     3    1
    15     3     4    1
    16     4     5   ar
    17     5     6   ar
    18     6     7   ar
    19     7     8   ar
    20     8    11    1
    21    11    12    1
    22    12    13    1
    23    13    14    1
    24    14    15    1
    25    14    16    1
    26    16    17    1
    27     8     9   ar
    28     9    10    1
    29    25    26   ar
    30    26    27   ar
    31    27    22   ar
    32    10     1    1
    33     9     4   ar
    34    17    11    1
    35    20    21    1
@<TRIPOS>MOLECULE
*****
 32 35 0 0 0
SMALL
GASTEIGER

@<TRIPOS>ATOM
      1 C         142.2320  138.9489  161.4862 C.3     1  UNL1        0.1200
      2 C         142.1652  137.5251  161.9532 C.3     1  UNL1        0.2250
      3 O         141.2172  137.1391  163.0497 O.3     1  UNL1       -0.4739
      4 C         140.3359  138.1770  163.6791 C.ar    1  UNL1        0.1358
      5 C         139.3879  137.7909  164.7756 C.ar    1  UNL1        0.0367
      6 C         138.5066  138.8288  165.4050 C.ar    1  UNL1        0.0044
      7 C         138.5734  140.2527  164.9379 C.ar    1  UNL1        0.0144
      8 C         139.5214  140.6387  163.8415 C.ar    1  UNL1        0.0468
      9 C         140.4027  139.6008  163.2121 C.ar    1  UNL1        0.0268
     10 C         141.3507  139.9868  162.1156 C.3     1  UNL1        0.0541
     11 N         139.5881  142.0625  163.3744 N.pl3   1  UNL1       -0.3048
     12 C         140.4728  143.0440  164.0844 C.3     1  UNL1        0.1081
     13 C         140.5395  144.4680  163.6173 C.3     1  UNL1        0.0938
     14 N         139.7216  144.9103  162.4403 N.3     1  UNL1       -0.2686
     15 C         139.7883  146.3342  161.9733 C.3     1  UNL1        0.0897
     16 C         138.8369  143.9288  161.7304 C.3     1  UNL1        0.0938
     17 C         138.7702  142.5049  162.1974 C.3     1  UNL1        0.1081
     18 C         142.6605  139.5998  159.0077 C.2     1  UNL1        0.2459
     19 O         141.1930  139.4786  158.7222 O.2     1  UNL1       -0.2701
     20 N         143.1800  139.3350  160.3897 N.am    1  UNL1       -0.2986
     21 H         144.1433  139.4145  160.5771 H       1  UNL1        0.1498
     22 C         145.5046  140.7578  155.7183 C.ar    1  UNL1        0.1386
     23 C         145.4231  141.5868  156.9658 C.ar    1  UNL1        0.0370
     24 C         144.4752  141.2008  158.0622 C.ar    1  UNL1        0.0076
     25 C         143.6086  139.9859  157.9112 C.ar    1  UNL1        0.0536
     26 C         143.6900  139.1569  156.6638 C.ar    1  UNL1        0.0076
     27 C         144.6380  139.5428  155.5673 C.ar    1  UNL1        0.0370
     28 O         146.4527  141.1439  154.6218 O.3     1  UNL1       -0.4755
     29 C         147.5209  142.1650  154.8789 C.3     1  UNL1        0.2054
     30 C         148.7432  141.7903  155.6635 C.3     1  UNL1        0.0473
     31 C         150.1362  141.5015  153.4894 C.3     1  UNL1        0.0001
     32 C         150.0727  141.6868  154.9766 C.3     1  UNL1        0.0038
@<TRIPOS>BOND
     1    31    32    1
     2    32    30    1
     3    30    29    1
     4    29    28    1
     5    28    22    1
     6    22    23   ar
     7    23    24   ar
     8    24    25   ar
     9    25    18    1
    10    18    19    2
    11    18    20   am
    12     1    20    1
    13     1     2    1
    14     2     3    1
    15     3     4    1
    16     4     5   ar
    17     5     6   ar
    18     6     7   ar
    19     7     8   ar
    20     8    11    1
    21    11    12    1
    22    12    13    1
    23    13    14    1
    24    14    15    1
    25    14    16    1
    26    16    17    1
    27     8     9   ar
    28     9    10    1
    29    25    26   ar
    30    26    27   ar
    31    27    22   ar
    32    10     1    1
    33     9     4   ar
    34    17    11    1
    35    20    21    1
