@<TRIPOS>MOLECULE
*****
 34 38 0 0 0
SMALL
GASTEIGER

@<TRIPOS>ATOM
      1 C         139.5385  142.4658  158.3550 C.3     1  UNL1        0.1531
      2 C         138.6948  142.3331  159.5881 C.3     1  UNL1        0.1067
      3 N         138.9522  141.2168  160.5564 N.3     1  UNL1       -0.2665
      4 C         138.1085  141.0841  161.7896 C.3     1  UNL1        0.0940
      5 C         138.3658  139.9678  162.7578 C.3     1  UNL1        0.1107
      6 N         139.4669  138.9841  162.4930 N.am    1  UNL1       -0.2764
      7 C         139.7242  137.8677  163.4613 C.2     1  UNL1        0.2303
      8 O         140.8252  136.8841  163.1965 O.2     1  UNL1       -0.2745
      9 C         140.3105  139.1168  161.2599 C.3     1  UNL1        0.1119
     10 C         140.0532  140.2331  160.2915 C.3     1  UNL1        0.1075
     11 C         140.8969  140.3658  159.0584 C.3     1  UNL1        0.1601
     12 O         140.6395  141.4821  158.0902 O.3     1  UNL1       -0.3489
     13 C         137.6382  142.0607  156.0692 C.3     1  UNL1        0.0316
     14 C         138.3310  143.3796  156.2438 C.ar    1  UNL1       -0.0117
     15 C         139.2811  143.5821  157.3867 C.ar    1  UNL1        0.0027
     16 C         139.9740  144.9010  157.5613 C.ar    1  UNL1        0.0001
     17 C         139.7167  146.0174  156.5931 C.ar    1  UNL1        0.0301
     18 C         138.7665  145.8148  155.4501 C.ar    1  UNL1        0.1493
     19 F         138.5092  146.9311  154.4819 F       1  UNL1       -0.2035
     20 C         138.0737  144.4959  155.2755 C.ar    1  UNL1        0.0916
     21 C         137.1235  144.2933  154.1327 C.1     1  UNL1        0.1024
     22 N         136.1734  144.0908  152.9898 N.1     1  UNL1       -0.1908
     23 C         138.8805  137.7351  164.6944 C.3     1  UNL1        0.1146
     24 C         139.1723  138.5821  165.8974 C.ar    1  UNL1        0.0254
     25 C         140.4755  139.3181  165.9983 C.ar    1  UNL1        0.0998
     26 N         140.7673  140.1652  167.2013 N.ar    1  UNL1       -0.2086
     27 C         139.7560  140.2763  168.3035 C.ar    1  UNL1        0.2559
     28 N         138.4528  139.5404  168.2027 N.ar    1  UNL1       -0.2086
     29 C         138.1610  138.6933  166.9996 C.ar    1  UNL1        0.0998
     30 N         140.0478  141.1234  169.5065 N.ar    1  UNL1       -0.1544
     31 C         140.2812  142.6051  169.5060 C.ar    1  UNL1        0.2287
     32 N         140.5350  143.0349  170.9205 N.ar    1  UNL1       -0.1044
     33 N         140.4585  141.8188  171.7953 N.ar    1  UNL1       -0.0222
     34 N         140.1574  140.6374  170.9215 N.ar    1  UNL1       -0.0359
@<TRIPOS>BOND
     1    13    14    1
     2    14    15   ar
     3     1    15    1
     4     1     2    1
     5     2     3    1
     6     3     4    1
     7     4     5    1
     8     5     6    1
     9     6     7   am
    10     7     8    2
    11     7    23    1
    12    23    24    1
    13    24    25   ar
    14    25    26   ar
    15    26    27   ar
    16    27    30    1
    17    30    31   ar
    18    31    32   ar
    19    32    33   ar
    20    33    34   ar
    21    27    28   ar
    22    28    29   ar
    23     6     9    1
    24    10     9    1
    25    10    11    1
    26    11    12    1
    27    15    16   ar
    28    16    17   ar
    29    17    18   ar
    30    18    19    1
    31    18    20   ar
    32    20    21    1
    33    21    22    3
    34    20    14   ar
    35    12     1    1
    36    10     3    1
    37    29    24   ar
    38    34    30   ar
@<TRIPOS>MOLECULE
*****
 34 38 0 0 0
SMALL
GASTEIGER

@<TRIPOS>ATOM
      1 C         138.4180  141.0499  157.5832 C.3     1  UNL1        0.1531
      2 C         137.6581  140.9418  158.8719 C.3     1  UNL1        0.1067
      3 N         138.1939  140.0977  159.9901 N.3     1  UNL1       -0.2665
      4 C         137.4340  139.9897  161.2788 C.3     1  UNL1        0.0940
      5 C         137.9698  139.1455  162.3970 C.3     1  UNL1        0.1107
      6 N         139.2656  138.4094  162.2264 N.am    1  UNL1       -0.2764
      7 C         139.8015  137.5653  163.3446 C.2     1  UNL1        0.2303
      8 O         141.0973  136.8292  163.1741 O.2     1  UNL1       -0.2745
      9 C         140.0256  138.5175  160.9377 C.3     1  UNL1        0.1119
     10 C         139.4897  139.3616  159.8195 C.3     1  UNL1        0.1075
     11 C         140.2496  139.4697  158.5308 C.3     1  UNL1        0.1601
     12 O         139.7138  140.3138  157.4127 O.3     1  UNL1       -0.3489
     13 C         139.2597  143.9185  157.3331 C.3     1  UNL1        0.0316
     14 C         138.3030  143.3283  156.3400 C.ar    1  UNL1       -0.0117
     15 C         137.8821  141.8940  156.4650 C.ar    1  UNL1        0.0027
     16 C         136.9254  141.3038  155.4719 C.ar    1  UNL1        0.0001
     17 C         136.3896  142.1479  154.3537 C.ar    1  UNL1        0.0301
     18 C         136.8104  143.5823  154.2286 C.ar    1  UNL1        0.1493
     19 F         136.2746  144.4263  153.1104 F       1  UNL1       -0.2035
     20 C         137.7672  144.1725  155.2218 C.ar    1  UNL1        0.0916
     21 C         138.1881  145.6067  155.0967 C.1     1  UNL1        0.1024
     22 N         138.6089  147.0410  154.9717 N.1     1  UNL1       -0.1908
     23 C         139.0415  137.4573  164.6333 C.3     1  UNL1        0.1146
     24 C         139.2680  138.4618  165.7240 C.ar    1  UNL1        0.0254
     25 C         140.4399  139.3954  165.6523 C.ar    1  UNL1        0.0998
     26 N         140.6664  140.3999  166.7429 N.ar    1  UNL1       -0.2086
     27 C         139.7210  140.4709  167.9054 C.ar    1  UNL1        0.2559
     28 N         138.5492  139.5373  167.9771 N.ar    1  UNL1       -0.2086
     29 C         138.3226  138.5327  166.8864 C.ar    1  UNL1        0.0998
     30 N         139.9475  141.4754  168.9960 N.ar    1  UNL1       -0.1544
     31 C         140.7076  142.7620  168.8658 C.ar    1  UNL1        0.2287
     32 N         140.6835  143.4515  170.1978 N.ar    1  UNL1       -0.1044
     33 N         139.9085  142.5910  171.1512 N.ar    1  UNL1       -0.0222
     34 N         139.4536  141.3698  170.4085 N.ar    1  UNL1       -0.0359
@<TRIPOS>BOND
     1    13    14    1
     2    14    15   ar
     3     1    15    1
     4     1     2    1
     5     2     3    1
     6     3     4    1
     7     4     5    1
     8     5     6    1
     9     6     7   am
    10     7     8    2
    11     7    23    1
    12    23    24    1
    13    24    25   ar
    14    25    26   ar
    15    26    27   ar
    16    27    30    1
    17    30    31   ar
    18    31    32   ar
    19    32    33   ar
    20    33    34   ar
    21    27    28   ar
    22    28    29   ar
    23     6     9    1
    24    10     9    1
    25    10    11    1
    26    11    12    1
    27    15    16   ar
    28    16    17   ar
    29    17    18   ar
    30    18    19    1
    31    18    20   ar
    32    20    21    1
    33    21    22    3
    34    20    14   ar
    35    12     1    1
    36    10     3    1
    37    29    24   ar
    38    34    30   ar
@<TRIPOS>MOLECULE
*****
 34 38 0 0 0
SMALL
GASTEIGER

@<TRIPOS>ATOM
      1 C         142.3468  142.4284  165.8343 C.3     1  UNL1        0.1531
      2 C         143.3629  141.7045  165.0016 C.3     1  UNL1        0.1067
      3 N         143.5017  142.0238  163.5426 N.3     1  UNL1       -0.2665
      4 C         144.5179  141.2999  162.7098 C.3     1  UNL1        0.0940
      5 C         144.6567  141.6193  161.2508 C.3     1  UNL1        0.1107
      6 N         143.7795  142.6625  160.6245 N.am    1  UNL1       -0.2764
      7 C         143.9184  142.9818  159.1655 C.2     1  UNL1        0.2303
      8 O         143.0412  144.0251  158.5392 O.2     1  UNL1       -0.2745
      9 C         142.7635  143.3864  161.4573 C.3     1  UNL1        0.1119
     10 C         142.6245  143.0671  162.9164 C.3     1  UNL1        0.1075
     11 C         141.6085  143.7910  163.7491 C.3     1  UNL1        0.1601
     12 O         141.4696  143.4716  165.2081 O.3     1  UNL1       -0.3489
     13 C         139.8178  141.1856  166.8638 C.3     1  UNL1        0.0316
     14 C         140.9434  141.4877  167.8081 C.ar    1  UNL1       -0.0117
     15 C         142.2079  142.1090  167.2934 C.ar    1  UNL1        0.0027
     16 C         143.3335  142.4111  168.2377 C.ar    1  UNL1        0.0001
     17 C         143.1946  142.0918  169.6967 C.ar    1  UNL1        0.0301
     18 C         141.9301  141.4704  170.2115 C.ar    1  UNL1        0.1493
     19 F         141.7913  141.1511  171.6705 F       1  UNL1       -0.2035
     20 C         140.8045  141.1683  169.2672 C.ar    1  UNL1        0.0916
     21 C         139.5400  140.5470  169.7818 C.1     1  UNL1        0.1024
     22 N         138.2756  139.9256  170.2965 N.1     1  UNL1       -0.1908
     23 C         144.9345  142.2579  158.3327 C.3     1  UNL1        0.1146
     24 C         144.5589  140.9889  157.6268 C.ar    1  UNL1        0.0254
     25 C         143.4910  140.1021  158.1955 C.ar    1  UNL1        0.0998
     26 N         143.1155  138.8330  157.4897 N.ar    1  UNL1       -0.2086
     27 C         143.8077  138.4506  156.2151 C.ar    1  UNL1        0.2559
     28 N         144.8756  139.3373  155.6464 N.ar    1  UNL1       -0.2086
     29 C         145.2512  140.6065  156.3523 C.ar    1  UNL1        0.0998
     30 N         143.4322  137.1815  155.5092 N.ar    1  UNL1       -0.1544
     31 C         143.7921  135.7915  155.9432 C.ar    1  UNL1        0.2287
     32 N         143.2130  134.8304  154.9475 N.ar    1  UNL1       -0.1044
     33 N         142.4953  135.6266  153.8982 N.ar    1  UNL1       -0.0222
     34 N         142.6307  137.0795  154.2453 N.ar    1  UNL1       -0.0359
@<TRIPOS>BOND
     1    13    14    1
     2    14    15   ar
     3     1    15    1
     4     1     2    1
     5     2     3    1
     6     3     4    1
     7     4     5    1
     8     5     6    1
     9     6     7   am
    10     7     8    2
    11     7    23    1
    12    23    24    1
    13    24    25   ar
    14    25    26   ar
    15    26    27   ar
    16    27    30    1
    17    30    31   ar
    18    31    32   ar
    19    32    33   ar
    20    33    34   ar
    21    27    28   ar
    22    28    29   ar
    23     6     9    1
    24    10     9    1
    25    10    11    1
    26    11    12    1
    27    15    16   ar
    28    16    17   ar
    29    17    18   ar
    30    18    19    1
    31    18    20   ar
    32    20    21    1
    33    21    22    3
    34    20    14   ar
    35    12     1    1
    36    10     3    1
    37    29    24   ar
    38    34    30   ar
@<TRIPOS>MOLECULE
*****
 34 38 0 0 0
SMALL
GASTEIGER

@<TRIPOS>ATOM
      1 C         142.8521  140.2529  164.9760 C.3     1  UNL1        0.1531
      2 C         141.9631  139.4773  164.0497 C.3     1  UNL1        0.1067
      3 N         142.2901  139.3981  162.5879 N.3     1  UNL1       -0.2665
      4 C         141.4011  138.6224  161.6615 C.3     1  UNL1        0.0940
      5 C         141.7281  138.5432  160.1997 C.3     1  UNL1        0.1107
      6 N         142.9440  139.2395  159.6643 N.am    1  UNL1       -0.2764
      7 C         143.2710  139.1602  158.2025 C.2     1  UNL1        0.2303
      8 O         144.4869  139.8565  157.6671 O.2     1  UNL1       -0.2745
      9 C         143.8330  140.0151  160.5907 C.3     1  UNL1        0.1119
     10 C         143.5060  140.0944  162.0525 C.3     1  UNL1        0.1075
     11 C         144.3950  140.8700  162.9789 C.3     1  UNL1        0.1601
     12 O         144.0680  140.9493  164.4406 O.3     1  UNL1       -0.3489
     13 C         141.4749  142.6808  166.0756 C.3     1  UNL1        0.0316
     14 C         141.8366  141.5462  166.9876 C.ar    1  UNL1       -0.0117
     15 C         142.5251  140.3322  166.4378 C.ar    1  UNL1        0.0027
     16 C         142.8868  139.1976  167.3499 C.ar    1  UNL1        0.0001
     17 C         142.5599  139.2769  168.8116 C.ar    1  UNL1        0.0301
     18 C         141.8713  140.4908  169.3615 C.ar    1  UNL1        0.1493
     19 F         141.5444  140.5701  170.8232 F       1  UNL1       -0.2035
     20 C         141.5096  141.6255  168.4494 C.ar    1  UNL1        0.0916
     21 C         140.8211  142.8394  168.9992 C.1     1  UNL1        0.1024
     22 N         140.1325  144.0533  169.5489 N.1     1  UNL1       -0.1908
     23 C         142.3820  138.3846  157.2762 C.3     1  UNL1        0.1146
     24 C         142.7640  136.9956  156.8581 C.ar    1  UNL1        0.0254
     25 C         142.9740  135.9315  157.8944 C.ar    1  UNL1        0.0998
     26 N         143.3561  134.5426  157.4763 N.ar    1  UNL1       -0.2086
     27 C         143.5281  134.2176  156.0221 C.ar    1  UNL1        0.2559
     28 N         143.3182  135.2816  154.9859 N.ar    1  UNL1       -0.2086
     29 C         142.9361  136.6707  155.4039 C.ar    1  UNL1        0.0998
     30 N         143.9102  132.8286  155.6041 N.ar    1  UNL1       -0.1544
     31 C         143.2748  132.0333  154.5023 C.ar    1  UNL1        0.2287
     32 N         143.9667  130.7042  154.4317 N.ar    1  UNL1       -0.1044
     33 N         145.0296  130.6781  155.4899 N.ar    1  UNL1       -0.0222
     34 N         144.9947  131.9910  156.2144 N.ar    1  UNL1       -0.0359
@<TRIPOS>BOND
     1    13    14    1
     2    14    15   ar
     3     1    15    1
     4     1     2    1
     5     2     3    1
     6     3     4    1
     7     4     5    1
     8     5     6    1
     9     6     7   am
    10     7     8    2
    11     7    23    1
    12    23    24    1
    13    24    25   ar
    14    25    26   ar
    15    26    27   ar
    16    27    30    1
    17    30    31   ar
    18    31    32   ar
    19    32    33   ar
    20    33    34   ar
    21    27    28   ar
    22    28    29   ar
    23     6     9    1
    24    10     9    1
    25    10    11    1
    26    11    12    1
    27    15    16   ar
    28    16    17   ar
    29    17    18   ar
    30    18    19    1
    31    18    20   ar
    32    20    21    1
    33    21    22    3
    34    20    14   ar
    35    12     1    1
    36    10     3    1
    37    29    24   ar
    38    34    30   ar
@<TRIPOS>MOLECULE
*****
 34 38 0 0 0
SMALL
GASTEIGER

@<TRIPOS>ATOM
      1 C         142.2752  140.6641  165.6968 C.3     1  UNL1        0.1531
      2 C         142.3732  141.7370  164.6532 C.3     1  UNL1        0.1067
      3 N         142.6618  141.3720  163.2272 N.3     1  UNL1       -0.2665
      4 C         142.7598  142.4449  162.1834 C.3     1  UNL1        0.0940
      5 C         143.0483  142.0799  160.7575 C.3     1  UNL1        0.1107
      6 N         143.2389  140.6421  160.3751 N.am    1  UNL1       -0.2764
      7 C         143.5274  140.2771  158.9490 C.2     1  UNL1        0.2303
      8 O         143.7179  138.8392  158.5667 O.2     1  UNL1       -0.2745
      9 C         143.1408  139.5692  161.4188 C.3     1  UNL1        0.1119
     10 C         142.8523  139.9341  162.8448 C.3     1  UNL1        0.1075
     11 C         142.7543  138.8612  163.8885 C.3     1  UNL1        0.1601
     12 O         142.4657  139.2262  165.3145 O.3     1  UNL1       -0.3489
     13 C         139.7457  139.7199  167.0046 C.3     1  UNL1        0.0316
     14 C         140.7220  140.5570  167.7767 C.ar    1  UNL1       -0.0117
     15 C         141.9867  141.0291  167.1229 C.ar    1  UNL1        0.0027
     16 C         142.9629  141.8662  167.8951 C.ar    1  UNL1        0.0001
     17 C         142.6744  142.2312  169.3211 C.ar    1  UNL1        0.0301
     18 C         141.4096  141.7590  169.9750 C.ar    1  UNL1        0.1493
     19 F         141.1211  142.1240  171.4010 F       1  UNL1       -0.2035
     20 C         140.4334  140.9219  169.2028 C.ar    1  UNL1        0.0916
     21 C         139.1687  140.4498  169.8566 C.1     1  UNL1        0.1024
     22 N         137.9040  139.9777  170.5105 N.1     1  UNL1       -0.1908
     23 C         143.6254  141.3500  157.9054 C.3     1  UNL1        0.1146
     24 C         144.9043  141.5425  157.1455 C.ar    1  UNL1        0.0254
     25 C         145.1319  140.8027  155.8606 C.ar    1  UNL1        0.0998
     26 N         146.4107  140.9952  155.1007 N.ar    1  UNL1       -0.2086
     27 C         147.4620  141.9274  155.6257 C.ar    1  UNL1        0.2559
     28 N         147.2345  142.6672  156.9106 N.ar    1  UNL1       -0.2086
     29 C         145.9556  142.4747  157.6705 C.ar    1  UNL1        0.0998
     30 N         148.7409  142.1199  154.8659 N.ar    1  UNL1       -0.1544
     31 C         150.1057  141.6869  155.3127 C.ar    1  UNL1        0.2287
     32 N         151.0879  142.0786  154.2487 N.ar    1  UNL1       -0.1044
     33 N         150.3300  142.7538  153.1443 N.ar    1  UNL1       -0.0222
     34 N         148.8795  142.7793  153.5257 N.ar    1  UNL1       -0.0359
@<TRIPOS>BOND
     1    13    14    1
     2    14    15   ar
     3     1    15    1
     4     1     2    1
     5     2     3    1
     6     3     4    1
     7     4     5    1
     8     5     6    1
     9     6     7   am
    10     7     8    2
    11     7    23    1
    12    23    24    1
    13    24    25   ar
    14    25    26   ar
    15    26    27   ar
    16    27    30    1
    17    30    31   ar
    18    31    32   ar
    19    32    33   ar
    20    33    34   ar
    21    27    28   ar
    22    28    29   ar
    23     6     9    1
    24    10     9    1
    25    10    11    1
    26    11    12    1
    27    15    16   ar
    28    16    17   ar
    29    17    18   ar
    30    18    19    1
    31    18    20   ar
    32    20    21    1
    33    21    22    3
    34    20    14   ar
    35    12     1    1
    36    10     3    1
    37    29    24   ar
    38    34    30   ar
@<TRIPOS>MOLECULE
*****
 34 38 0 0 0
SMALL
GASTEIGER

@<TRIPOS>ATOM
      1 C         142.3918  140.6542  163.6468 C.3     1  UNL1        0.1531
      2 C         141.4629  139.8443  162.7918 C.3     1  UNL1        0.1067
      3 N         141.8356  139.5241  161.3746 N.3     1  UNL1       -0.2665
      4 C         140.9066  138.7141  160.5195 C.3     1  UNL1        0.0940
      5 C         141.2793  138.3940  159.1023 C.3     1  UNL1        0.1107
      6 N         142.5808  138.8837  158.5401 N.am    1  UNL1       -0.2764
      7 C         142.9535  138.5635  157.1228 C.2     1  UNL1        0.2303
      8 O         144.2550  139.0533  156.5605 O.2     1  UNL1       -0.2745
      9 C         143.5097  139.6937  159.3951 C.3     1  UNL1        0.1119
     10 C         143.1371  140.0139  160.8124 C.3     1  UNL1        0.1075
     11 C         144.0660  140.8238  161.6674 C.3     1  UNL1        0.1601
     12 O         143.6934  141.1440  163.0846 O.3     1  UNL1       -0.3489
     13 C         143.2521  138.8349  165.8717 C.3     1  UNL1        0.0316
     14 C         142.4493  140.0648  166.1765 C.ar    1  UNL1       -0.0117
     15 C         142.0192  140.9744  165.0642 C.ar    1  UNL1        0.0027
     16 C         141.2164  142.2043  165.3690 C.ar    1  UNL1        0.0001
     17 C         140.8438  142.5246  166.7862 C.ar    1  UNL1        0.0301
     18 C         141.2739  141.6149  167.8987 C.ar    1  UNL1        0.1493
     19 F         140.9013  141.9351  169.3159 F       1  UNL1       -0.2035
     20 C         142.0767  140.3850  167.5938 C.ar    1  UNL1        0.0916
     21 C         142.5068  139.4753  168.7062 C.1     1  UNL1        0.1024
     22 N         142.9369  138.5656  169.8186 N.1     1  UNL1       -0.1908
     23 C         142.0246  137.7536  156.2677 C.3     1  UNL1        0.1146
     24 C         142.1297  136.2574  156.2553 C.ar    1  UNL1        0.0254
     25 C         143.0813  135.5645  157.1851 C.ar    1  UNL1        0.0998
     26 N         143.1864  134.0683  157.1726 N.ar    1  UNL1       -0.2086
     27 C         142.3399  133.2648  156.2303 C.ar    1  UNL1        0.2559
     28 N         141.3884  133.9576  155.3005 N.ar    1  UNL1       -0.2086
     29 C         141.2832  135.4539  155.3130 C.ar    1  UNL1        0.0998
     30 N         142.4450  131.7686  156.2179 N.ar    1  UNL1       -0.1544
     31 C         141.7341  130.8426  155.2760 C.ar    1  UNL1        0.2287
     32 N         142.1292  129.4372  155.6211 N.ar    1  UNL1       -0.1044
     33 N         143.0844  129.4947  156.7763 N.ar    1  UNL1       -0.0222
     34 N         143.2795  130.9355  157.1451 N.ar    1  UNL1       -0.0359
@<TRIPOS>BOND
     1    13    14    1
     2    14    15   ar
     3     1    15    1
     4     1     2    1
     5     2     3    1
     6     3     4    1
     7     4     5    1
     8     5     6    1
     9     6     7   am
    10     7     8    2
    11     7    23    1
    12    23    24    1
    13    24    25   ar
    14    25    26   ar
    15    26    27   ar
    16    27    30    1
    17    30    31   ar
    18    31    32   ar
    19    32    33   ar
    20    33    34   ar
    21    27    28   ar
    22    28    29   ar
    23     6     9    1
    24    10     9    1
    25    10    11    1
    26    11    12    1
    27    15    16   ar
    28    16    17   ar
    29    17    18   ar
    30    18    19    1
    31    18    20   ar
    32    20    21    1
    33    21    22    3
    34    20    14   ar
    35    12     1    1
    36    10     3    1
    37    29    24   ar
    38    34    30   ar
@<TRIPOS>MOLECULE
*****
 34 38 0 0 0
SMALL
GASTEIGER

@<TRIPOS>ATOM
      1 C         139.7344  140.7558  163.1371 C.3     1  UNL1        0.1531
      2 C         140.9566  140.3765  162.3546 C.3     1  UNL1        0.1067
      3 N         140.8149  139.6936  161.0267 N.3     1  UNL1       -0.2665
      4 C         142.0371  139.3143  160.2441 C.3     1  UNL1        0.0940
      5 C         141.8954  138.6314  158.9161 C.3     1  UNL1        0.1107
      6 N         140.5314  138.3278  158.3707 N.am    1  UNL1       -0.2764
      7 C         140.3897  137.6448  157.0426 C.2     1  UNL1        0.2303
      8 O         139.0258  137.3412  156.4972 O.2     1  UNL1       -0.2745
      9 C         139.3092  138.7071  159.1532 C.3     1  UNL1        0.1119
     10 C         139.4509  139.3900  160.4812 C.3     1  UNL1        0.1075
     11 C         138.2288  139.7693  161.2637 C.3     1  UNL1        0.1601
     12 O         138.3705  140.4522  162.5916 O.3     1  UNL1       -0.3489
     13 C         139.7324  139.1381  165.6636 C.3     1  UNL1        0.0316
     14 C         139.8751  140.6299  165.7283 C.ar    1  UNL1       -0.0117
     15 C         139.8761  141.4388  164.4651 C.ar    1  UNL1        0.0027
     16 C         140.0188  142.9306  164.5299 C.ar    1  UNL1        0.0001
     17 C         140.1605  143.6135  165.8578 C.ar    1  UNL1        0.0301
     18 C         140.1595  142.8047  167.1211 C.ar    1  UNL1        0.1493
     19 F         140.3012  143.4876  168.4490 F       1  UNL1       -0.2035
     20 C         140.0168  141.3129  167.0564 C.ar    1  UNL1        0.0916
     21 C         140.0159  140.5040  168.3196 C.1     1  UNL1        0.1024
     22 N         140.0149  139.6952  169.5828 N.1     1  UNL1       -0.1908
     23 C         141.6119  137.2655  156.2602 C.3     1  UNL1        0.1146
     24 C         142.0585  135.8343  156.2138 C.ar    1  UNL1        0.0254
     25 C         141.3576  134.8586  155.3156 C.ar    1  UNL1        0.0998
     26 N         141.8041  133.4274  155.2693 N.ar    1  UNL1       -0.2086
     27 C         142.9516  132.9718  156.1211 C.ar    1  UNL1        0.2559
     28 N         143.6525  133.9474  157.0194 N.ar    1  UNL1       -0.2086
     29 C         143.2060  135.3787  157.0657 C.ar    1  UNL1        0.0998
     30 N         143.3982  131.5406  156.0748 N.ar    1  UNL1       -0.1544
     31 C         144.8168  131.0622  155.9815 C.ar    1  UNL1        0.2287
     32 N         144.7999  129.5623  155.9627 N.ar    1  UNL1       -0.1044
     33 N         143.3708  129.1138  156.0444 N.ar    1  UNL1       -0.0222
     34 N         142.5045  130.3364  156.1137 N.ar    1  UNL1       -0.0359
@<TRIPOS>BOND
     1    13    14    1
     2    14    15   ar
     3     1    15    1
     4     1     2    1
     5     2     3    1
     6     3     4    1
     7     4     5    1
     8     5     6    1
     9     6     7   am
    10     7     8    2
    11     7    23    1
    12    23    24    1
    13    24    25   ar
    14    25    26   ar
    15    26    27   ar
    16    27    30    1
    17    30    31   ar
    18    31    32   ar
    19    32    33   ar
    20    33    34   ar
    21    27    28   ar
    22    28    29   ar
    23     6     9    1
    24    10     9    1
    25    10    11    1
    26    11    12    1
    27    15    16   ar
    28    16    17   ar
    29    17    18   ar
    30    18    19    1
    31    18    20   ar
    32    20    21    1
    33    21    22    3
    34    20    14   ar
    35    12     1    1
    36    10     3    1
    37    29    24   ar
    38    34    30   ar
@<TRIPOS>MOLECULE
*****
 34 38 0 0 0
SMALL
GASTEIGER

@<TRIPOS>ATOM
      1 C         142.6517  140.1934  165.7941 C.3     1  UNL1        0.1531
      2 C         141.7683  139.3570  164.9167 C.3     1  UNL1        0.1067
      3 N         142.0804  139.2142  163.4565 N.3     1  UNL1       -0.2665
      4 C         141.1970  138.3777  162.5790 C.3     1  UNL1        0.0940
      5 C         141.5091  138.2349  161.1188 C.3     1  UNL1        0.1107
      6 N         142.7047  138.9285  160.5361 N.am    1  UNL1       -0.2764
      7 C         143.0168  138.7857  159.0758 C.2     1  UNL1        0.2303
      8 O         144.2124  139.4793  158.4931 O.2     1  UNL1       -0.2745
      9 C         143.5881  139.7649  161.4135 C.3     1  UNL1        0.1119
     10 C         143.2760  139.9078  162.8738 C.3     1  UNL1        0.1075
     11 C         144.1594  140.7442  163.7512 C.3     1  UNL1        0.1601
     12 O         143.8473  140.8870  165.2114 O.3     1  UNL1       -0.3489
     13 C         141.2965  142.6724  166.8029 C.3     1  UNL1        0.0316
     14 C         141.6620  141.5757  167.7587 C.ar    1  UNL1       -0.0117
     15 C         142.3396  140.3362  167.2544 C.ar    1  UNL1        0.0027
     16 C         142.7051  139.2395  168.2102 C.ar    1  UNL1        0.0001
     17 C         142.3930  139.3823  169.6703 C.ar    1  UNL1        0.0301
     18 C         141.7154  140.6218  170.1748 C.ar    1  UNL1        0.1493
     19 F         141.4033  140.7646  171.6350 F       1  UNL1       -0.2035
     20 C         141.3499  141.7185  169.2190 C.ar    1  UNL1        0.0916
     21 C         140.6723  142.9581  169.7233 C.1     1  UNL1        0.1024
     22 N         139.9947  144.1976  170.2277 N.1     1  UNL1       -0.1908
     23 C         142.1334  137.9493  158.1984 C.3     1  UNL1        0.1146
     24 C         140.9007  138.5471  157.5876 C.ar    1  UNL1        0.0254
     25 C         140.0298  137.7174  156.6912 C.ar    1  UNL1        0.0998
     26 N         138.7971  138.3152  156.0805 N.ar    1  UNL1       -0.2086
     27 C         138.4352  139.7426  156.3661 C.ar    1  UNL1        0.2559
     28 N         139.3060  140.5722  157.2624 N.ar    1  UNL1       -0.2086
     29 C         140.5388  139.9744  157.8732 C.ar    1  UNL1        0.0998
     30 N         137.2025  140.3404  155.7553 N.ar    1  UNL1       -0.1544
     31 C         137.0067  140.6666  154.3043 C.ar    1  UNL1        0.2287
     32 N         135.6323  141.2447  154.1406 N.ar    1  UNL1       -0.1044
     33 N         134.9787  141.2759  155.4904 N.ar    1  UNL1       -0.0222
     34 N         135.9491  140.7170  156.4883 N.ar    1  UNL1       -0.0359
@<TRIPOS>BOND
     1    13    14    1
     2    14    15   ar
     3     1    15    1
     4     1     2    1
     5     2     3    1
     6     3     4    1
     7     4     5    1
     8     5     6    1
     9     6     7   am
    10     7     8    2
    11     7    23    1
    12    23    24    1
    13    24    25   ar
    14    25    26   ar
    15    26    27   ar
    16    27    30    1
    17    30    31   ar
    18    31    32   ar
    19    32    33   ar
    20    33    34   ar
    21    27    28   ar
    22    28    29   ar
    23     6     9    1
    24    10     9    1
    25    10    11    1
    26    11    12    1
    27    15    16   ar
    28    16    17   ar
    29    17    18   ar
    30    18    19    1
    31    18    20   ar
    32    20    21    1
    33    21    22    3
    34    20    14   ar
    35    12     1    1
    36    10     3    1
    37    29    24   ar
    38    34    30   ar
@<TRIPOS>MOLECULE
*****
 34 38 0 0 0
SMALL
GASTEIGER

@<TRIPOS>ATOM
      1 C         142.1293  141.5029  165.5784 C.3     1  UNL1        0.1531
      2 C         141.2831  142.3471  164.6722 C.3     1  UNL1        0.1067
      3 N         141.4380  142.2377  163.1843 N.3     1  UNL1       -0.2665
      4 C         140.5917  143.0818  162.2780 C.3     1  UNL1        0.0940
      5 C         140.7467  142.9724  160.7901 C.3     1  UNL1        0.1107
      6 N         141.7478  142.0189  160.2083 N.am    1  UNL1       -0.2764
      7 C         141.9028  141.9095  158.7203 C.2     1  UNL1        0.2303
      8 O         142.9039  140.9560  158.1386 O.2     1  UNL1       -0.2745
      9 C         142.5941  141.1748  161.1145 C.3     1  UNL1        0.1119
     10 C         142.4392  141.2841  162.6026 C.3     1  UNL1        0.1075
     11 C         143.2854  140.4400  163.5088 C.3     1  UNL1        0.1601
     12 O         143.1305  140.5494  164.9967 O.3     1  UNL1       -0.3489
     13 C         139.7307  140.3097  166.9286 C.3     1  UNL1        0.0316
     14 C         140.7751  141.0157  167.7415 C.ar    1  UNL1       -0.0117
     15 C         141.9744  141.6123  167.0664 C.ar    1  UNL1        0.0027
     16 C         143.0188  142.3183  167.8793 C.ar    1  UNL1        0.0001
     17 C         142.8639  142.4277  169.3672 C.ar    1  UNL1        0.0301
     18 C         141.6646  141.8310  170.0424 C.ar    1  UNL1        0.1493
     19 F         141.5097  141.9404  171.5303 F       1  UNL1       -0.2035
     20 C         140.6202  141.1250  169.2295 C.ar    1  UNL1        0.0916
     21 C         139.4209  140.5284  169.9046 C.1     1  UNL1        0.1024
     22 N         138.2216  139.9318  170.5796 N.1     1  UNL1       -0.1908
     23 C         141.0565  142.7537  157.8141 C.3     1  UNL1        0.1146
     24 C         139.6759  142.3015  157.4409 C.ar    1  UNL1        0.0254
     25 C         138.6848  143.2879  156.8977 C.ar    1  UNL1        0.0998
     26 N         137.3042  142.8358  156.5245 N.ar    1  UNL1       -0.2086
     27 C         136.9145  141.3973  156.6944 C.ar    1  UNL1        0.2559
     28 N         137.9055  140.4109  157.2375 N.ar    1  UNL1       -0.2086
     29 C         139.2862  140.8630  157.6108 C.ar    1  UNL1        0.0998
     30 N         135.5339  140.9451  156.3212 N.ar    1  UNL1       -0.1544
     31 C         134.7252  141.4467  155.1616 C.ar    1  UNL1        0.2287
     32 N         133.4109  140.7235  155.1658 N.ar    1  UNL1       -0.1044
     33 N         133.4074  139.7751  156.3279 N.ar    1  UNL1       -0.0222
     34 N         134.7194  139.9120  157.0419 N.ar    1  UNL1       -0.0359
@<TRIPOS>BOND
     1    13    14    1
     2    14    15   ar
     3     1    15    1
     4     1     2    1
     5     2     3    1
     6     3     4    1
     7     4     5    1
     8     5     6    1
     9     6     7   am
    10     7     8    2
    11     7    23    1
    12    23    24    1
    13    24    25   ar
    14    25    26   ar
    15    26    27   ar
    16    27    30    1
    17    30    31   ar
    18    31    32   ar
    19    32    33   ar
    20    33    34   ar
    21    27    28   ar
    22    28    29   ar
    23     6     9    1
    24    10     9    1
    25    10    11    1
    26    11    12    1
    27    15    16   ar
    28    16    17   ar
    29    17    18   ar
    30    18    19    1
    31    18    20   ar
    32    20    21    1
    33    21    22    3
    34    20    14   ar
    35    12     1    1
    36    10     3    1
    37    29    24   ar
    38    34    30   ar
