@<TRIPOS>MOLECULE
*****
 40 45 0 0 0
SMALL
GASTEIGER

@<TRIPOS>ATOM
      1 C         142.8112  135.8054  157.6858 C.ar    1  UNL1        0.2400
      2 N         142.2250  135.3520  156.3817 N.ar    1  UNL1       -0.2090
      3 C         141.4889  136.3267  155.5111 C.ar    1  UNL1        0.1021
      4 C         141.1575  137.8265  155.6463 C.ar    1  UNL1        0.0207
      5 C         141.9355  137.2820  156.8075 C.ar    1  UNL1        0.0221
      6 C         142.6613  137.2336  158.1193 C.ar    1  UNL1        0.1178
      7 N         143.2475  137.6870  159.4234 N.pl3   1  UNL1       -0.2104
      8 S         143.6234  138.5876  160.5626 S.O2    1  UNL1        0.0737
      9 O         144.3768  138.3702  161.8413 O.2     1  UNL1       -0.1499
     10 O         144.1000  137.1763  160.7387 O.2     1  UNL1       -0.1499
     11 C         143.7436  139.8267  161.3994 C.ar    1  UNL1        0.1253
     12 C         144.4695  139.7783  162.7112 C.ar    1  UNL1        0.0202
     13 C         144.5897  141.0173  163.5480 C.ar    1  UNL1        0.0015
     14 C         143.9841  142.3048  163.0729 C.ar    1  UNL1        0.0046
     15 C         143.2583  142.3533  161.7612 C.ar    1  UNL1        0.0547
     16 C         143.1381  141.1142  160.9244 C.ar    1  UNL1        0.0247
     17 C         142.5861  143.9873  161.3358 C.2     1  UNL1        0.2461
     18 O         142.9620  144.8879  162.4749 O.2     1  UNL1       -0.2701
     19 N         141.8500  144.9619  160.4651 N.am    1  UNL1       -0.2969
     20 C         141.0721  145.5064  159.3039 C.3     1  UNL1        0.1181
     21 C         140.3463  145.5548  157.9921 C.ar    1  UNL1        0.0166
     22 C         139.6246  146.6790  157.2224 C.ar    1  UNL1        0.0962
     23 N         138.8988  146.7274  155.9105 N.ar    1  UNL1       -0.2426
     24 C         138.7786  145.4883  155.0738 C.ar    1  UNL1        0.0988
     25 C         139.3842  144.2008  155.5488 C.ar    1  UNL1        0.0190
     26 C         139.7600  145.1014  156.6879 C.ar    1  UNL1        0.0005
     27 C         139.2639  142.9617  154.7120 C.ar    1  UNL1        0.0045
     28 C         138.5277  143.9365  153.8413 C.ar    1  UNL1        0.0207
     29 C         137.9416  143.4830  152.5372 C.ar    1  UNL1        0.0988
     30 N         138.0914  142.0549  152.1037 N.ar    1  UNL1       -0.2438
     31 C         138.8276  141.0802  152.9744 C.ar    1  UNL1        0.0813
     32 C         139.0870  139.4547  152.6444 C.ar    1  UNL1        0.0191
     33 C         139.8086  138.4229  153.4598 C.ar    1  UNL1        0.0016
     34 C         140.4214  138.8012  154.7757 C.ar    1  UNL1        0.0016
     35 C         139.8158  140.0886  154.3006 C.ar    1  UNL1        0.0015
     36 C         139.4139  141.5336  154.2785 C.ar    1  UNL1        0.0177
     37 H         143.6450  136.8420  159.7352 H       1  UNL1        0.1739
     38 H         141.9289  145.7752  161.0143 H       1  UNL1        0.1501
     39 C         144.0998  133.5670  157.9668 C.3     1  UNL1        0.2543
     40 O         143.5473  134.8307  158.5564 O.3     1  UNL1       -0.4553
@<TRIPOS>BOND
     1    39    40    1
     2    40     1    1
     3     1     2   ar
     4     2     3   ar
     5     3     4   ar
     6     4     5   ar
     7     5     6   ar
     8     6     7    1
     9     7     8    1
    10     8     9    2
    11     8    10    2
    12     8    11    1
    13    11    12   ar
    14    12    13   ar
    15    13    14   ar
    16    14    15   ar
    17    15    16   ar
    18    15    17    1
    19    17    18    2
    20    17    19   am
    21    19    20    1
    22    20    21    1
    23    21    22   ar
    24    22    23   ar
    25    23    24   ar
    26    24    25   ar
    27    25    26   ar
    28    25    27    1
    29    27    28   ar
    30    28    29   ar
    31    29    30   ar
    32    30    31   ar
    33    31    32   ar
    34    32    33   ar
    35    33    34   ar
    36    34    35   ar
    37    35    36   ar
    38     6     1   ar
    39    16    11   ar
    40    26    21   ar
    41    36    27   ar
    42    34     4    1
    43    36    31   ar
    44     7    37    1
    45    19    38    1
@<TRIPOS>MOLECULE
*****
 40 45 0 0 0
SMALL
GASTEIGER

@<TRIPOS>ATOM
      1 C         140.2174  145.6427  154.9290 C.ar    1  UNL1        0.2400
      2 N         139.8282  146.7725  155.8356 N.ar    1  UNL1       -0.2090
      3 C         139.8633  146.5863  157.3236 C.ar    1  UNL1        0.1021
      4 C         140.2391  145.3996  158.2334 C.ar    1  UNL1        0.0207
      5 C         140.3668  145.0916  156.7709 C.ar    1  UNL1        0.0221
      6 C         140.6418  144.3266  155.5103 C.ar    1  UNL1        0.1178
      7 N         141.0311  143.1969  154.6037 N.pl3   1  UNL1       -0.2104
      8 S         141.4876  141.8385  154.1604 S.O2    1  UNL1        0.0737
      9 O         141.7164  141.2181  152.8140 O.2     1  UNL1       -0.1499
     10 O         141.2001  142.7701  153.0203 O.2     1  UNL1       -0.1499
     11 C         141.9563  140.4155  154.2338 C.ar    1  UNL1        0.1253
     12 C         142.2314  139.6505  152.9732 C.ar    1  UNL1        0.0202
     13 C         142.7001  138.2275  153.0466 C.ar    1  UNL1        0.0015
     14 C         142.8937  137.5696  154.3806 C.ar    1  UNL1        0.0046
     15 C         142.6187  138.3346  155.6412 C.ar    1  UNL1        0.0547
     16 C         142.1500  139.7575  155.5678 C.ar    1  UNL1        0.0247
     17 C         142.9032  137.3912  157.1682 C.2     1  UNL1        0.2461
     18 O         143.3597  136.0328  156.7249 O.2     1  UNL1       -0.2701
     19 N         142.9383  137.2050  158.6562 N.am    1  UNL1       -0.2969
     20 C         142.8107  137.5129  160.1187 C.3     1  UNL1        0.1181
     21 C         142.5356  138.2780  161.3793 C.ar    1  UNL1        0.0166
     22 C         142.6273  137.9201  162.8761 C.ar    1  UNL1        0.0962
     23 N         142.3522  138.6852  164.1367 N.ar    1  UNL1       -0.2426
     24 C         141.8835  140.1082  164.0633 C.ar    1  UNL1        0.0988
     25 C         141.6898  140.7661  162.7293 C.ar    1  UNL1        0.0190
     26 C         142.1464  139.4078  162.2860 C.ar    1  UNL1        0.0005
     27 C         141.2211  142.1891  162.6558 C.ar    1  UNL1        0.0045
     28 C         141.2563  142.0029  164.1439 C.ar    1  UNL1        0.0207
     29 C         140.8670  143.1327  165.0505 C.ar    1  UNL1        0.0988
     30 N         140.4426  144.4488  164.4692 N.ar    1  UNL1       -0.2438
     31 C         140.4075  144.6349  162.9811 C.ar    1  UNL1        0.0813
     32 C         139.9601  146.0331  162.1667 C.ar    1  UNL1        0.0191
     33 C         139.8998  146.2950  160.6909 C.ar    1  UNL1        0.0016
     34 C         140.2742  145.2134  159.7214 C.ar    1  UNL1        0.0016
     35 C         140.4679  144.5554  161.0554 C.ar    1  UNL1        0.0015
     36 C         140.7968  143.5051  162.0745 C.ar    1  UNL1        0.0177
     37 H         140.9040  143.6287  153.7281 H       1  UNL1        0.1739
     38 H         143.2459  136.2711  158.7044 H       1  UNL1        0.1501
     39 C         141.3301  146.4941  152.7411 C.3     1  UNL1        0.2543
     40 O         140.1823  145.8289  153.4410 O.3     1  UNL1       -0.4553
@<TRIPOS>BOND
     1    39    40    1
     2    40     1    1
     3     1     2   ar
     4     2     3   ar
     5     3     4   ar
     6     4     5   ar
     7     5     6   ar
     8     6     7    1
     9     7     8    1
    10     8     9    2
    11     8    10    2
    12     8    11    1
    13    11    12   ar
    14    12    13   ar
    15    13    14   ar
    16    14    15   ar
    17    15    16   ar
    18    15    17    1
    19    17    18    2
    20    17    19   am
    21    19    20    1
    22    20    21    1
    23    21    22   ar
    24    22    23   ar
    25    23    24   ar
    26    24    25   ar
    27    25    26   ar
    28    25    27    1
    29    27    28   ar
    30    28    29   ar
    31    29    30   ar
    32    30    31   ar
    33    31    32   ar
    34    32    33   ar
    35    33    34   ar
    36    34    35   ar
    37    35    36   ar
    38     6     1   ar
    39    16    11   ar
    40    26    21   ar
    41    36    27   ar
    42    34     4    1
    43    36    31   ar
    44     7    37    1
    45    19    38    1
@<TRIPOS>MOLECULE
*****
 40 45 0 0 0
SMALL
GASTEIGER

@<TRIPOS>ATOM
      1 C         139.2427  147.0513  156.8442 C.ar    1  UNL1        0.2400
      2 N         139.1626  147.0234  155.3466 N.ar    1  UNL1       -0.2090
      3 C         139.5523  145.7836  154.5977 C.ar    1  UNL1        0.1021
      4 C         140.0646  144.3977  155.0382 C.ar    1  UNL1        0.0207
      5 C         139.8070  145.3290  156.1856 C.ar    1  UNL1        0.0221
      6 C         139.7126  145.8394  157.5929 C.ar    1  UNL1        0.1178
      7 N         139.7927  145.8673  159.0904 N.pl3   1  UNL1       -0.2104
      8 S         140.0377  145.4094  160.4977 S.O2    1  UNL1        0.0737
      9 O         139.8866  146.0696  161.8360 O.2     1  UNL1       -0.1499
     10 O         139.5377  146.8210  160.4108 O.2     1  UNL1       -0.1499
     11 C         140.4181  144.5209  161.6448 C.ar    1  UNL1        0.1253
     12 C         140.3237  145.0313  163.0521 C.ar    1  UNL1        0.0202
     13 C         140.7040  144.1428  164.1992 C.ar    1  UNL1        0.0015
     14 C         141.1788  142.7439  163.9390 C.ar    1  UNL1        0.0046
     15 C         141.2733  142.2336  162.5317 C.ar    1  UNL1        0.0547
     16 C         140.8929  143.1220  161.3846 C.ar    1  UNL1        0.0247
     17 C         141.8654  140.5209  162.3932 C.2     1  UNL1        0.2461
     18 O         142.1104  140.0630  163.8004 O.2     1  UNL1       -0.2701
     19 N         142.2550  139.2811  161.6442 N.am    1  UNL1       -0.2969
     20 C         142.5127  138.3498  160.4970 C.3     1  UNL1        0.1181
     21 C         142.6071  137.8394  159.0896 C.ar    1  UNL1        0.0166
     22 C         143.0427  136.4924  158.4790 C.ar    1  UNL1        0.0962
     23 N         143.1371  135.9820  157.0717 N.ar    1  UNL1       -0.2426
     24 C         142.7567  136.8705  155.9246 C.ar    1  UNL1        0.0988
     25 C         142.2819  138.2694  156.1848 C.ar    1  UNL1        0.0190
     26 C         142.5270  137.8115  157.5920 C.ar    1  UNL1        0.0005
     27 C         141.9016  139.1579  155.0377 C.ar    1  UNL1        0.0045
     28 C         142.2913  137.9180  154.2887 C.ar    1  UNL1        0.0207
     29 C         142.2111  137.8901  152.7911 C.ar    1  UNL1        0.0988
     30 N         141.7413  139.1020  152.0424 N.ar    1  UNL1       -0.2438
     31 C         141.3516  140.3419  152.7914 C.ar    1  UNL1        0.0813
     32 C         140.8072  141.7790  152.1157 C.ar    1  UNL1        0.0191
     33 C         140.4010  143.0539  152.7939 C.ar    1  UNL1        0.0016
     34 C         140.4543  143.1579  154.2893 C.ar    1  UNL1        0.0016
     35 C         140.9291  141.7590  154.0291 C.ar    1  UNL1        0.0015
     36 C         141.4317  140.3698  154.2890 C.ar    1  UNL1        0.0177
     37 H         139.4811  146.7855  159.2612 H       1  UNL1        0.1739
     38 H         142.5047  138.6980  162.3971 H       1  UNL1        0.1501
     39 C         138.4590  149.5284  156.8421 C.3     1  UNL1        0.2543
     40 O         138.8531  148.2912  157.5931 O.3     1  UNL1       -0.4553
@<TRIPOS>BOND
     1    39    40    1
     2    40     1    1
     3     1     2   ar
     4     2     3   ar
     5     3     4   ar
     6     4     5   ar
     7     5     6   ar
     8     6     7    1
     9     7     8    1
    10     8     9    2
    11     8    10    2
    12     8    11    1
    13    11    12   ar
    14    12    13   ar
    15    13    14   ar
    16    14    15   ar
    17    15    16   ar
    18    15    17    1
    19    17    18    2
    20    17    19   am
    21    19    20    1
    22    20    21    1
    23    21    22   ar
    24    22    23   ar
    25    23    24   ar
    26    24    25   ar
    27    25    26   ar
    28    25    27    1
    29    27    28   ar
    30    28    29   ar
    31    29    30   ar
    32    30    31   ar
    33    31    32   ar
    34    32    33   ar
    35    33    34   ar
    36    34    35   ar
    37    35    36   ar
    38     6     1   ar
    39    16    11   ar
    40    26    21   ar
    41    36    27   ar
    42    34     4    1
    43    36    31   ar
    44     7    37    1
    45    19    38    1
@<TRIPOS>MOLECULE
*****
 40 45 0 0 0
SMALL
GASTEIGER

@<TRIPOS>ATOM
      1 C         142.8172  136.9540  155.5330 C.ar    1  UNL1        0.2400
      2 N         143.0700  136.0200  156.6792 N.ar    1  UNL1       -0.2090
      3 C         142.8980  136.5001  158.0898 C.ar    1  UNL1        0.1021
      4 C         142.4842  137.8520  158.7050 C.ar    1  UNL1        0.0207
      5 C         142.5120  137.8645  157.2053 C.ar    1  UNL1        0.0221
      6 C         142.3923  138.3681  155.7975 C.ar    1  UNL1        0.1178
      7 N         142.1394  139.3020  154.6513 N.pl3   1  UNL1       -0.2104
      8 S         141.7839  140.5537  153.9050 S.O2    1  UNL1        0.0737
      9 O         141.7126  140.8975  152.4467 O.2     1  UNL1       -0.1499
     10 O         142.1427  139.4076  153.0061 O.2     1  UNL1       -0.1499
     11 C         141.3687  141.9721  153.6486 C.ar    1  UNL1        0.1253
     12 C         141.2489  142.4757  152.2408 C.ar    1  UNL1        0.0202
     13 C         140.8337  143.8941  151.9844 C.ar    1  UNL1        0.0015
     14 C         140.5382  144.8089  153.1359 C.ar    1  UNL1        0.0046
     15 C         140.6580  144.3053  154.5437 C.ar    1  UNL1        0.0547
     16 C         141.0732  142.8869  154.8000 C.ar    1  UNL1        0.0247
     17 C         140.2650  145.5401  155.8179 C.2     1  UNL1        0.2461
     18 O         139.9095  146.7918  155.0716 O.2     1  UNL1       -0.2701
     19 N         140.0930  146.0201  157.2285 N.am    1  UNL1       -0.2969
     20 C         140.0652  146.0077  158.7282 C.3     1  UNL1        0.1181
     21 C         140.1849  145.5040  160.1361 C.ar    1  UNL1        0.0166
     22 C         139.9628  146.1552  161.5158 C.ar    1  UNL1        0.0962
     23 N         140.0826  145.6515  162.9237 N.ar    1  UNL1       -0.2426
     24 C         140.4978  144.2332  163.1800 C.ar    1  UNL1        0.0988
     25 C         140.7933  143.3184  162.0286 C.ar    1  UNL1        0.0190
     26 C         140.4378  144.5701  161.2823 C.ar    1  UNL1        0.0005
     27 C         141.2085  141.9000  162.2849 C.ar    1  UNL1        0.0045
     28 C         141.0365  142.3801  163.6957 C.ar    1  UNL1        0.0207
     29 C         141.2894  141.4461  164.8418 C.ar    1  UNL1        0.0988
     30 N         141.7143  140.0320  164.5774 N.ar    1  UNL1       -0.2438
     31 C         141.8863  139.5520  163.1667 C.ar    1  UNL1        0.0813
     32 C         142.3533  138.0105  162.6934 C.ar    1  UNL1        0.0191
     33 C         142.5462  137.4582  161.3122 C.ar    1  UNL1        0.0016
     34 C         142.3122  138.3320  160.1156 C.ar    1  UNL1        0.0016
     35 C         142.0167  139.2468  161.2671 C.ar    1  UNL1        0.0015
     36 C         141.6334  140.4859  162.0205 C.ar    1  UNL1        0.0177
     37 H         142.3333  138.7016  153.8955 H       1  UNL1        0.1739
     38 H         139.8205  146.9510  157.0603 H       1  UNL1        0.1501
     39 C         141.8615  135.7710  153.4265 C.3     1  UNL1        0.2543
     40 O         142.9892  136.4739  154.1224 O.3     1  UNL1       -0.4553
@<TRIPOS>BOND
     1    39    40    1
     2    40     1    1
     3     1     2   ar
     4     2     3   ar
     5     3     4   ar
     6     4     5   ar
     7     5     6   ar
     8     6     7    1
     9     7     8    1
    10     8     9    2
    11     8    10    2
    12     8    11    1
    13    11    12   ar
    14    12    13   ar
    15    13    14   ar
    16    14    15   ar
    17    15    16   ar
    18    15    17    1
    19    17    18    2
    20    17    19   am
    21    19    20    1
    22    20    21    1
    23    21    22   ar
    24    22    23   ar
    25    23    24   ar
    26    24    25   ar
    27    25    26   ar
    28    25    27    1
    29    27    28   ar
    30    28    29   ar
    31    29    30   ar
    32    30    31   ar
    33    31    32   ar
    34    32    33   ar
    35    33    34   ar
    36    34    35   ar
    37    35    36   ar
    38     6     1   ar
    39    16    11   ar
    40    26    21   ar
    41    36    27   ar
    42    34     4    1
    43    36    31   ar
    44     7    37    1
    45    19    38    1
@<TRIPOS>MOLECULE
*****
 40 45 0 0 0
SMALL
GASTEIGER

@<TRIPOS>ATOM
      1 C         137.9915  143.7430  153.7504 C.ar    1  UNL1        0.2400
      2 N         137.9480  145.0473  154.4900 N.ar    1  UNL1       -0.2090
      3 C         138.6074  145.1711  155.8315 C.ar    1  UNL1        0.1021
      4 C         139.3949  144.1865  156.7190 C.ar    1  UNL1        0.0207
      5 C         138.9226  143.5795  155.4311 C.ar    1  UNL1        0.0221
      6 C         138.6945  142.5625  154.3524 C.ar    1  UNL1        0.1178
      7 N         138.7381  141.2583  153.6128 N.pl3   1  UNL1       -0.2104
      8 S         139.0480  139.8240  153.3016 S.O2    1  UNL1        0.0737
      9 O         138.7340  138.9322  152.1372 O.2     1  UNL1       -0.1499
     10 O         138.2602  140.5088  152.2244 O.2     1  UNL1       -0.1499
     11 C         139.5870  138.4327  153.4564 C.ar    1  UNL1        0.1253
     12 C         139.3589  137.4158  152.3776 C.ar    1  UNL1        0.0202
     13 C         139.8979  136.0246  152.5324 C.ar    1  UNL1        0.0015
     14 C         140.6650  135.6503  153.7659 C.ar    1  UNL1        0.0046
     15 C         140.8931  136.6673  154.8446 C.ar    1  UNL1        0.0547
     16 C         140.3541  138.0585  154.6899 C.ar    1  UNL1        0.0247
     17 C         141.8393  136.0508  156.2685 C.2     1  UNL1        0.2461
     18 O         142.1493  134.6166  155.9574 O.2     1  UNL1       -0.2701
     19 N         142.4987  136.1747  157.6101 N.am    1  UNL1       -0.2969
     20 C         142.9710  136.7817  158.8979 C.3     1  UNL1        0.1181
     21 C         143.1991  137.7987  159.9767 C.ar    1  UNL1        0.0166
     22 C         143.9235  137.7547  161.3369 C.ar    1  UNL1        0.0962
     23 N         144.1516  138.7718  162.4157 N.ar    1  UNL1       -0.2426
     24 C         143.6126  140.1630  162.2609 C.ar    1  UNL1        0.0988
     25 C         142.8455  140.5372  161.0274 C.ar    1  UNL1        0.0190
     26 C         143.1555  139.1030  160.7163 C.ar    1  UNL1        0.0005
     27 C         142.3066  141.9284  160.8727 C.ar    1  UNL1        0.0045
     28 C         142.9660  142.0523  162.2143 C.ar    1  UNL1        0.0207
     29 C         142.9224  143.3566  162.9538 C.ar    1  UNL1        0.0988
     30 N         142.2195  144.5371  162.3519 N.ar    1  UNL1       -0.2438
     31 C         141.5600  144.4132  161.0102 C.ar    1  UNL1        0.0813
     32 C         140.7347  145.6265  160.1947 C.ar    1  UNL1        0.0191
     33 C         140.0531  145.5800  158.8594 C.ar    1  UNL1        0.0016
     34 C         140.0543  144.3104  158.0605 C.ar    1  UNL1        0.0016
     35 C         140.8214  143.9361  159.2940 C.ar    1  UNL1        0.0015
     36 C         141.6036  143.1089  160.2707 C.ar    1  UNL1        0.0177
     37 H         138.2346  141.5039  152.8032 H       1  UNL1        0.1739
     38 H         142.8524  135.2616  157.7116 H       1  UNL1        0.1501
     39 C         135.8724  143.2860  152.3184 C.3     1  UNL1        0.2543
     40 O         137.3321  143.6192  152.4088 O.3     1  UNL1       -0.4553
@<TRIPOS>BOND
     1    39    40    1
     2    40     1    1
     3     1     2   ar
     4     2     3   ar
     5     3     4   ar
     6     4     5   ar
     7     5     6   ar
     8     6     7    1
     9     7     8    1
    10     8     9    2
    11     8    10    2
    12     8    11    1
    13    11    12   ar
    14    12    13   ar
    15    13    14   ar
    16    14    15   ar
    17    15    16   ar
    18    15    17    1
    19    17    18    2
    20    17    19   am
    21    19    20    1
    22    20    21    1
    23    21    22   ar
    24    22    23   ar
    25    23    24   ar
    26    24    25   ar
    27    25    26   ar
    28    25    27    1
    29    27    28   ar
    30    28    29   ar
    31    29    30   ar
    32    30    31   ar
    33    31    32   ar
    34    32    33   ar
    35    33    34   ar
    36    34    35   ar
    37    35    36   ar
    38     6     1   ar
    39    16    11   ar
    40    26    21   ar
    41    36    27   ar
    42    34     4    1
    43    36    31   ar
    44     7    37    1
    45    19    38    1
@<TRIPOS>MOLECULE
*****
 40 45 0 0 0
SMALL
GASTEIGER

@<TRIPOS>ATOM
      1 C         139.5105  145.6652  156.4208 C.ar    1  UNL1        0.2400
      2 N         138.8421  145.5224  155.0855 N.ar    1  UNL1       -0.2090
      3 C         138.8261  144.1919  154.3933 C.ar    1  UNL1        0.1021
      4 C         139.3846  142.8019  154.7581 C.ar    1  UNL1        0.0207
      5 C         139.6605  143.8459  155.7993 C.ar    1  UNL1        0.0221
      6 C         140.1629  144.4773  157.0637 C.ar    1  UNL1        0.1178
      7 N         140.8313  144.6200  158.3990 N.pl3   1  UNL1       -0.2104
      8 S         141.5850  144.2568  159.6439 S.O2    1  UNL1        0.0737
      9 O         142.0175  145.0369  160.8499 O.2     1  UNL1       -0.1499
     10 O         141.1794  145.7001  159.5948 O.2     1  UNL1       -0.1499
     11 C         142.3332  143.4315  160.6485 C.ar    1  UNL1        0.1253
     12 C         142.8357  144.0630  161.9130 C.ar    1  UNL1        0.0202
     13 C         143.5838  143.2377  162.9175 C.ar    1  UNL1        0.0015
     14 C         143.8296  141.7809  162.6576 C.ar    1  UNL1        0.0046
     15 C         143.3272  141.1495  161.3931 C.ar    1  UNL1        0.0547
     16 C         142.5790  141.9748  160.3886 C.ar    1  UNL1        0.0247
     17 C         143.7092  139.3798  161.2354 C.2     1  UNL1        0.2461
     18 O         144.4630  139.0166  162.4803 O.2     1  UNL1       -0.2701
     19 N         143.6932  138.0492  160.5430 N.am    1  UNL1       -0.2969
     20 C         143.4173  137.0052  159.5019 C.3     1  UNL1        0.1181
     21 C         142.9149  136.3738  158.2374 C.ar    1  UNL1        0.0166
     22 C         142.9891  134.9437  157.6663 C.ar    1  UNL1        0.0962
     23 N         142.4867  134.3122  156.4018 N.ar    1  UNL1       -0.2426
     24 C         141.7385  135.1375  155.3973 C.ar    1  UNL1        0.0988
     25 C         141.4927  136.5943  155.6572 C.ar    1  UNL1        0.0190
     26 C         142.2465  136.2310  156.9022 C.ar    1  UNL1        0.0005
     27 C         140.7446  137.4195  154.6527 C.ar    1  UNL1        0.0045
     28 C         140.7285  136.0889  153.9603 C.ar    1  UNL1        0.0207
     29 C         140.0601  135.9462  152.6251 C.ar    1  UNL1        0.0988
     30 N         139.4078  137.1340  151.9821 N.ar    1  UNL1       -0.2438
     31 C         139.4238  138.4647  152.6745 C.ar    1  UNL1        0.0813
     32 C         138.7459  139.8895  152.1011 C.ar    1  UNL1        0.0191
     33 C         138.7209  141.2506  152.7310 C.ar    1  UNL1        0.0016
     34 C         139.3686  141.4713  154.0659 C.ar    1  UNL1        0.0016
     35 C         139.6143  140.0146  153.8060 C.ar    1  UNL1        0.0015
     36 C         140.0922  138.6074  154.0097 C.ar    1  UNL1        0.0177
     37 H         140.6700  145.5761  158.5696 H       1  UNL1        0.1739
     38 H         144.1842  137.5076  161.2024 H       1  UNL1        0.1501
     39 C         138.9132  148.1935  156.4504 C.3     1  UNL1        0.2543
     40 O         139.5265  146.9957  157.1130 O.3     1  UNL1       -0.4553
@<TRIPOS>BOND
     1    39    40    1
     2    40     1    1
     3     1     2   ar
     4     2     3   ar
     5     3     4   ar
     6     4     5   ar
     7     5     6   ar
     8     6     7    1
     9     7     8    1
    10     8     9    2
    11     8    10    2
    12     8    11    1
    13    11    12   ar
    14    12    13   ar
    15    13    14   ar
    16    14    15   ar
    17    15    16   ar
    18    15    17    1
    19    17    18    2
    20    17    19   am
    21    19    20    1
    22    20    21    1
    23    21    22   ar
    24    22    23   ar
    25    23    24   ar
    26    24    25   ar
    27    25    26   ar
    28    25    27    1
    29    27    28   ar
    30    28    29   ar
    31    29    30   ar
    32    30    31   ar
    33    31    32   ar
    34    32    33   ar
    35    33    34   ar
    36    34    35   ar
    37    35    36   ar
    38     6     1   ar
    39    16    11   ar
    40    26    21   ar
    41    36    27   ar
    42    34     4    1
    43    36    31   ar
    44     7    37    1
    45    19    38    1
@<TRIPOS>MOLECULE
*****
 40 45 0 0 0
SMALL
GASTEIGER

@<TRIPOS>ATOM
      1 C         141.1439  136.0060  154.7032 C.ar    1  UNL1        0.2400
      2 N         141.9222  135.1680  155.6737 N.ar    1  UNL1       -0.2090
      3 C         142.3769  135.7565  156.9764 C.ar    1  UNL1        0.1021
      4 C         142.2224  137.1489  157.6203 C.ar    1  UNL1        0.0207
      5 C         141.5775  137.0430  156.2702 C.ar    1  UNL1        0.0221
      6 C         140.8202  137.4325  155.0354 C.ar    1  UNL1        0.1178
      7 N         140.0418  138.2705  154.0649 N.pl3   1  UNL1       -0.2104
      8 S         139.3362  139.4559  153.4757 S.O2    1  UNL1        0.0737
      9 O         138.6067  139.6827  152.1849 O.2     1  UNL1       -0.1499
     10 O         139.3060  138.2458  152.5899 O.2     1  UNL1       -0.1499
     11 C         138.7885  140.8457  153.3389 C.ar    1  UNL1        0.1253
     12 C         138.0313  141.2352  152.1042 C.ar    1  UNL1        0.0202
     13 C         137.4836  142.6249  151.9674 C.ar    1  UNL1        0.0015
     14 C         137.6933  143.6251  153.0655 C.ar    1  UNL1        0.0046
     15 C         138.4506  143.2356  154.3003 C.ar    1  UNL1        0.0547
     16 C         138.9982  141.8458  154.4370 C.ar    1  UNL1        0.0247
     17 C         138.6139  144.5635  155.5301 C.2     1  UNL1        0.2461
     18 O         137.9083  145.7489  154.9410 O.2     1  UNL1       -0.2701
     19 N         139.0686  145.1520  156.8328 N.am    1  UNL1       -0.2969
     20 C         139.7135  145.2579  158.1829 C.3     1  UNL1        0.1181
     21 C         140.4708  144.8683  159.4177 C.ar    1  UNL1        0.0166
     22 C         140.8594  145.6245  160.7039 C.ar    1  UNL1        0.0962
     23 N         141.6168  145.2348  161.9387 N.ar    1  UNL1       -0.2426
     24 C         142.1644  143.8451  162.0754 C.ar    1  UNL1        0.0988
     25 C         141.9547  142.8450  160.9774 C.ar    1  UNL1        0.0190
     26 C         141.2492  144.0303  160.3883 C.ar    1  UNL1        0.0005
     27 C         142.5024  141.4552  161.1141 C.ar    1  UNL1        0.0045
     28 C         142.9571  142.0437  162.4169 C.ar    1  UNL1        0.0207
     29 C         143.7355  141.2057  163.3873 C.ar    1  UNL1        0.0988
     30 N         144.0592  139.7792  163.0552 N.ar    1  UNL1       -0.2438
     31 C         143.6044  139.1907  161.7525 C.ar    1  UNL1        0.0813
     32 C         143.8782  137.6211  161.2238 C.ar    1  UNL1        0.0191
     33 C         143.4584  136.9631  159.9428 C.ar    1  UNL1        0.0016
     34 C         142.6771  137.7374  158.9230 C.ar    1  UNL1        0.0016
     35 C         142.8867  138.7375  160.0210 C.ar    1  UNL1        0.0015
     36 C         142.8261  140.0287  160.7820 C.ar    1  UNL1        0.0177
     37 H         139.9042  137.6141  153.3442 H       1  UNL1        0.1739
     38 H         138.7091  146.0641  156.7430 H       1  UNL1        0.1501
     39 C         141.6206  134.5551  152.6014 C.3     1  UNL1        0.2543
     40 O         140.6892  135.4175  153.4006 O.3     1  UNL1       -0.4553
@<TRIPOS>BOND
     1    39    40    1
     2    40     1    1
     3     1     2   ar
     4     2     3   ar
     5     3     4   ar
     6     4     5   ar
     7     5     6   ar
     8     6     7    1
     9     7     8    1
    10     8     9    2
    11     8    10    2
    12     8    11    1
    13    11    12   ar
    14    12    13   ar
    15    13    14   ar
    16    14    15   ar
    17    15    16   ar
    18    15    17    1
    19    17    18    2
    20    17    19   am
    21    19    20    1
    22    20    21    1
    23    21    22   ar
    24    22    23   ar
    25    23    24   ar
    26    24    25   ar
    27    25    26   ar
    28    25    27    1
    29    27    28   ar
    30    28    29   ar
    31    29    30   ar
    32    30    31   ar
    33    31    32   ar
    34    32    33   ar
    35    33    34   ar
    36    34    35   ar
    37    35    36   ar
    38     6     1   ar
    39    16    11   ar
    40    26    21   ar
    41    36    27   ar
    42    34     4    1
    43    36    31   ar
    44     7    37    1
    45    19    38    1
@<TRIPOS>MOLECULE
*****
 40 45 0 0 0
SMALL
GASTEIGER

@<TRIPOS>ATOM
      1 C         142.7777  143.4484  161.9414 C.ar    1  UNL1        0.2400
      2 N         143.4184  142.3364  162.7180 N.ar    1  UNL1       -0.2090
      3 C         143.4971  140.9590  162.1295 C.ar    1  UNL1        0.1021
      4 C         143.0337  140.3519  160.7901 C.ar    1  UNL1        0.0207
      5 C         142.7222  141.8135  160.9202 C.ar    1  UNL1        0.0221
      6 C         142.2156  143.1828  160.5763 C.ar    1  UNL1        0.1178
      7 N         141.5748  144.2947  159.7997 N.pl3   1  UNL1       -0.2104
      8 S         140.8773  145.0150  158.6841 S.O2    1  UNL1        0.0737
      9 O         140.4299  146.4344  158.4963 O.2     1  UNL1       -0.1499
     10 O         141.1932  145.8975  159.8553 O.2     1  UNL1       -0.1499
     11 C         140.2070  145.2571  157.3642 C.ar    1  UNL1        0.1253
     12 C         139.7004  146.6263  157.0202 C.ar    1  UNL1        0.0202
     13 C         139.0301  146.8683  155.7003 C.ar    1  UNL1        0.0015
     14 C         138.8665  145.7410  154.7244 C.ar    1  UNL1        0.0046
     15 C         139.3732  144.3717  155.0683 C.ar    1  UNL1        0.0547
     16 C         140.0434  144.1298  156.3882 C.ar    1  UNL1        0.0247
     17 C         139.0952  143.1230  153.7775 C.2     1  UNL1        0.2461
     18 O         138.3976  143.8434  152.6620 O.2     1  UNL1       -0.2701
     19 N         139.1739  141.7455  153.1891 N.am    1  UNL1       -0.2969
     20 C         139.4853  140.2840  153.0589 C.3     1  UNL1        0.1181
     21 C         139.9919  138.9147  153.4030 C.ar    1  UNL1        0.0166
     22 C         139.9897  137.5664  152.6552 C.ar    1  UNL1        0.0962
     23 N         140.4964  136.1971  152.9993 N.ar    1  UNL1       -0.2426
     24 C         141.1666  135.9551  154.3192 C.ar    1  UNL1        0.0988
     25 C         141.3302  137.0824  155.2951 C.ar    1  UNL1        0.0190
     26 C         140.6327  137.8028  154.1795 C.ar    1  UNL1        0.0005
     27 C         142.0005  136.8404  156.6150 C.ar    1  UNL1        0.0045
     28 C         142.0792  135.4629  156.0265 C.ar    1  UNL1        0.0207
     29 C         142.7199  134.3510  156.8031 C.ar    1  UNL1        0.0988
     30 N         143.2820  134.6165  158.1682 N.ar    1  UNL1       -0.2438
     31 C         143.2033  135.9941  158.7567 C.ar    1  UNL1        0.0813
     32 C         143.7783  136.4639  160.2624 C.ar    1  UNL1        0.0191
     33 C         143.7371  137.8132  160.9165 C.ar    1  UNL1        0.0016
     34 C         143.1123  138.9745  160.2016 C.ar    1  UNL1        0.0016
     35 C         142.9487  137.8472  159.2257 C.ar    1  UNL1        0.0015
     36 C         142.5626  137.1060  157.9801 C.ar    1  UNL1        0.0177
     37 H         141.6822  145.0346  160.4402 H       1  UNL1        0.1739
     38 H         138.7340  141.9044  152.3228 H       1  UNL1        0.1501
     39 C         141.6388  145.1505  163.5401 C.3     1  UNL1        0.2543
     40 O         142.6990  144.8258  162.5299 O.3     1  UNL1       -0.4553
@<TRIPOS>BOND
     1    39    40    1
     2    40     1    1
     3     1     2   ar
     4     2     3   ar
     5     3     4   ar
     6     4     5   ar
     7     5     6   ar
     8     6     7    1
     9     7     8    1
    10     8     9    2
    11     8    10    2
    12     8    11    1
    13    11    12   ar
    14    12    13   ar
    15    13    14   ar
    16    14    15   ar
    17    15    16   ar
    18    15    17    1
    19    17    18    2
    20    17    19   am
    21    19    20    1
    22    20    21    1
    23    21    22   ar
    24    22    23   ar
    25    23    24   ar
    26    24    25   ar
    27    25    26   ar
    28    25    27    1
    29    27    28   ar
    30    28    29   ar
    31    29    30   ar
    32    30    31   ar
    33    31    32   ar
    34    32    33   ar
    35    33    34   ar
    36    34    35   ar
    37    35    36   ar
    38     6     1   ar
    39    16    11   ar
    40    26    21   ar
    41    36    27   ar
    42    34     4    1
    43    36    31   ar
    44     7    37    1
    45    19    38    1
@<TRIPOS>MOLECULE
*****
 40 45 0 0 0
SMALL
GASTEIGER

@<TRIPOS>ATOM
      1 C         142.8542  140.1107  154.6808 C.ar    1  UNL1        0.2400
      2 N         143.3613  138.8158  155.2428 N.ar    1  UNL1       -0.2090
      3 C         143.2965  138.5627  156.7199 C.ar    1  UNL1        0.1021
      4 C         142.7852  139.3922  157.9147 C.ar    1  UNL1        0.0207
      5 C         142.6330  140.0915  156.5964 C.ar    1  UNL1        0.0221
      6 C         142.2823  141.1527  155.5959 C.ar    1  UNL1        0.1178
      7 N         141.7752  142.4476  155.0339 N.pl3   1  UNL1       -0.2104
      8 S         141.1730  143.8203  154.9782 S.O2    1  UNL1        0.0737
      9 O         140.8848  144.7732  153.8562 O.2     1  UNL1       -0.1499
     10 O         141.5694  143.2904  153.6321 O.2     1  UNL1       -0.1499
     11 C         140.5482  145.1051  155.4355 C.ar    1  UNL1        0.1253
     12 C         140.1974  146.1662  154.4350 C.ar    1  UNL1        0.0202
     13 C         139.5727  147.4509  154.8923 C.ar    1  UNL1        0.0015
     14 C         139.2987  147.6745  156.3500 C.ar    1  UNL1        0.0046
     15 C         139.6494  146.6134  157.3505 C.ar    1  UNL1        0.0547
     16 C         140.2742  145.3287  156.8932 C.ar    1  UNL1        0.0247
     17 C         139.2522  147.0439  159.0708 C.2     1  UNL1        0.2461
     18 O         138.6499  148.4166  159.0151 O.2     1  UNL1       -0.2701
     19 N         139.1874  146.7907  160.5479 N.am    1  UNL1       -0.2969
     20 C         139.3395  146.0915  161.8661 C.3     1  UNL1        0.1181
     21 C         139.6903  145.0303  162.8666 C.ar    1  UNL1        0.0166
     22 C         139.5501  144.9322  164.3988 C.ar    1  UNL1        0.0962
     23 N         139.9009  143.8710  165.3993 N.ar    1  UNL1       -0.2426
     24 C         140.5256  142.5863  164.9420 C.ar    1  UNL1        0.0988
     25 C         140.7996  142.3627  163.4843 C.ar    1  UNL1        0.0190
     26 C         140.1974  143.7353  163.4286 C.ar    1  UNL1        0.0005
     27 C         141.4244  141.0779  163.0270 C.ar    1  UNL1        0.0045
     28 C         141.3595  140.8248  164.5042 C.ar    1  UNL1        0.0207
     29 C         141.8666  139.5298  165.0661 C.ar    1  UNL1        0.0988
     30 N         142.4385  138.4879  164.1511 N.ar    1  UNL1       -0.2438
     31 C         142.5034  138.7410  162.6739 C.ar    1  UNL1        0.0813
     32 C         143.1087  137.6902  161.5130 C.ar    1  UNL1        0.0191
     33 C         143.2070  137.8704  160.0271 C.ar    1  UNL1        0.0016
     34 C         142.7204  139.1391  159.3917 C.ar    1  UNL1        0.0016
     35 C         142.4464  139.3627  160.8494 C.ar    1  UNL1        0.0015
     36 C         141.9963  140.0360  162.1119 C.ar    1  UNL1        0.0177
     37 H         141.9550  142.3009  154.0772 H       1  UNL1        0.1739
     38 H         138.7773  147.6340  160.8480 H       1  UNL1        0.1501
     39 C         144.1417  140.9921  152.6034 C.3     1  UNL1        0.2543
     40 O         142.9190  140.3638  153.2038 O.3     1  UNL1       -0.4553
@<TRIPOS>BOND
     1    39    40    1
     2    40     1    1
     3     1     2   ar
     4     2     3   ar
     5     3     4   ar
     6     4     5   ar
     7     5     6   ar
     8     6     7    1
     9     7     8    1
    10     8     9    2
    11     8    10    2
    12     8    11    1
    13    11    12   ar
    14    12    13   ar
    15    13    14   ar
    16    14    15   ar
    17    15    16   ar
    18    15    17    1
    19    17    18    2
    20    17    19   am
    21    19    20    1
    22    20    21    1
    23    21    22   ar
    24    22    23   ar
    25    23    24   ar
    26    24    25   ar
    27    25    26   ar
    28    25    27    1
    29    27    28   ar
    30    28    29   ar
    31    29    30   ar
    32    30    31   ar
    33    31    32   ar
    34    32    33   ar
    35    33    34   ar
    36    34    35   ar
    37    35    36   ar
    38     6     1   ar
    39    16    11   ar
    40    26    21   ar
    41    36    27   ar
    42    34     4    1
    43    36    31   ar
    44     7    37    1
    45    19    38    1
