@<TRIPOS>MOLECULE
*****
 27 30 0 0 0
SMALL
GASTEIGER

@<TRIPOS>ATOM
      1 C         139.4431  140.5243  162.2610 C.ar    1  UNL1        0.1547
      2 C         139.1781  140.5208  163.7374 C.ar    1  UNL1        0.0400
      3 C         138.8949  139.2292  164.4456 C.ar    1  UNL1        0.0241
      4 C         138.8765  137.9411  163.6773 C.ar    1  UNL1        0.0033
      5 C         139.1415  137.9445  162.2009 C.ar    1  UNL1        0.0207
      6 C         139.4247  139.2361  161.4928 C.ar    1  UNL1        0.0994
      7 N         139.6897  139.2396  160.0163 N.ar    1  UNL1       -0.2839
      8 C         140.9455  138.7685  159.3448 C.ar    1  UNL1        0.1826
      9 N         140.7773  138.9525  157.8657 N.ar    1  UNL1       -0.2280
     10 C         139.4173  139.5372  157.6230 C.ar    1  UNL1        0.0786
     11 C         138.8323  139.8836  156.2860 C.3     1  UNL1        0.0538
     12 C         138.7452  139.7146  158.9522 C.ar    1  UNL1        0.0963
     13 C         138.6299  139.2258  165.9220 C.ar    1  UNL1        0.1233
     14 C         139.3520  140.0463  166.9493 C.ar    1  UNL1        0.1179
     15 N         138.7648  139.7289  168.2925 N.ar    1  UNL1       -0.2257
     16 N         137.6796  138.7121  168.0954 N.ar    1  UNL1       -0.0635
     17 N         137.5963  138.4012  166.6304 N.ar    1  UNL1       -0.1287
     18 C         139.1882  140.3237  169.6028 C.3     1  UNL1        0.1556
     19 C         140.5459  140.9465  169.7399 C.ar    1  UNL1        0.0023
     20 C         140.6925  142.4392  169.7135 C.ar    1  UNL1       -0.0000
     21 C         142.0502  143.0620  169.8506 C.ar    1  UNL1        0.0294
     22 C         143.2613  142.1922  170.0142 C.ar    1  UNL1        0.1401
     23 F         144.6190  142.8149  170.1513 F       1  UNL1       -0.2042
     24 C         143.1147  140.6996  170.0406 C.ar    1  UNL1        0.0294
     25 C         141.7570  140.0768  169.9034 C.ar    1  UNL1       -0.0000
     26 C         138.5984  142.7364  161.1919 C.3     1  UNL1        0.2525
     27 O         139.7263  141.8159  161.5529 O.3     1  UNL1       -0.4700
@<TRIPOS>BOND
     1    26    27    1
     2    27     1    1
     3     1     2   ar
     4     2     3   ar
     5     3    13    1
     6    13    14   ar
     7    14    15   ar
     8    15    18    1
     9    18    19    1
    10    19    20   ar
    11    20    21   ar
    12    21    22   ar
    13    22    23    1
    14    22    24   ar
    15    24    25   ar
    16    15    16   ar
    17    16    17   ar
    18     3     4   ar
    19     4     5   ar
    20     5     6   ar
    21     6     7    1
    22     7     8   ar
    23     8     9   ar
    24     9    10   ar
    25    10    11    1
    26    10    12   ar
    27     6     1   ar
    28    12     7   ar
    29    17    13   ar
    30    25    19   ar
@<TRIPOS>MOLECULE
*****
 27 30 0 0 0
SMALL
GASTEIGER

@<TRIPOS>ATOM
      1 C         144.2409  139.4822  163.2236 C.ar    1  UNL1        0.1547
      2 C         144.2807  139.3805  161.7276 C.ar    1  UNL1        0.0400
      3 C         143.1845  138.6652  160.9951 C.ar    1  UNL1        0.0241
      4 C         142.0484  138.0517  161.7585 C.ar    1  UNL1        0.0033
      5 C         142.0086  138.1534  163.2545 C.ar    1  UNL1        0.0207
      6 C         143.1049  138.8687  163.9870 C.ar    1  UNL1        0.0994
      7 N         143.0650  138.9703  165.4831 N.ar    1  UNL1       -0.2839
      8 C         143.7498  138.0484  166.4480 C.ar    1  UNL1        0.1826
      9 N         143.4414  138.5201  167.8381 N.ar    1  UNL1       -0.2280
     10 C         142.5660  139.7337  167.7323 C.ar    1  UNL1        0.0786
     11 C         142.0192  140.5292  168.8804 C.3     1  UNL1        0.0538
     12 C         142.3334  140.0119  166.2768 C.ar    1  UNL1        0.0963
     13 C         143.2243  138.5635  159.4990 C.ar    1  UNL1        0.1233
     14 C         142.5731  137.4963  158.6702 C.ar    1  UNL1        0.1179
     15 N         142.8687  137.7844  157.2281 N.ar    1  UNL1       -0.2257
     16 N         143.7026  139.0298  157.1656 N.ar    1  UNL1       -0.0635
     17 N         143.9223  139.5113  158.5691 N.ar    1  UNL1       -0.1287
     18 C         142.4108  136.9702  156.0544 C.3     1  UNL1        0.1556
     19 C         142.4129  135.4723  156.1342 C.ar    1  UNL1        0.0023
     20 C         143.4174  134.7687  156.9980 C.ar    1  UNL1       -0.0000
     21 C         143.4194  133.2708  157.0778 C.ar    1  UNL1        0.0294
     22 C         142.4170  132.4766  156.2939 C.ar    1  UNL1        0.1401
     23 F         142.4191  130.9787  156.3737 F       1  UNL1       -0.2042
     24 C         141.4126  133.1802  155.4302 C.ar    1  UNL1        0.0294
     25 C         141.4106  134.6781  155.3504 C.ar    1  UNL1       -0.0000
     26 C         145.4208  141.6942  163.9053 C.3     1  UNL1        0.2525
     27 O         145.3372  140.1974  163.9561 O.3     1  UNL1       -0.4700
@<TRIPOS>BOND
     1    26    27    1
     2    27     1    1
     3     1     2   ar
     4     2     3   ar
     5     3    13    1
     6    13    14   ar
     7    14    15   ar
     8    15    18    1
     9    18    19    1
    10    19    20   ar
    11    20    21   ar
    12    21    22   ar
    13    22    23    1
    14    22    24   ar
    15    24    25   ar
    16    15    16   ar
    17    16    17   ar
    18     3     4   ar
    19     4     5   ar
    20     5     6   ar
    21     6     7    1
    22     7     8   ar
    23     8     9   ar
    24     9    10   ar
    25    10    11    1
    26    10    12   ar
    27     6     1   ar
    28    12     7   ar
    29    17    13   ar
    30    25    19   ar
@<TRIPOS>MOLECULE
*****
 27 30 0 0 0
SMALL
GASTEIGER

@<TRIPOS>ATOM
      1 C         140.2870  140.1940  162.1755 C.ar    1  UNL1        0.1547
      2 C         139.9396  140.2418  163.6339 C.ar    1  UNL1        0.0400
      3 C         139.2080  139.0964  164.2686 C.ar    1  UNL1        0.0241
      4 C         138.8239  137.9032  163.4448 C.ar    1  UNL1        0.0033
      5 C         139.1714  137.8553  161.9864 C.ar    1  UNL1        0.0207
      6 C         139.9029  139.0008  161.3518 C.ar    1  UNL1        0.0994
      7 N         140.2504  138.9529  159.8933 N.ar    1  UNL1       -0.2839
      8 C         139.3564  139.3610  158.7601 C.ar    1  UNL1        0.1826
      9 N         140.1064  139.1489  157.4785 N.ar    1  UNL1       -0.2280
     10 C         141.4639  138.6097  157.8196 C.ar    1  UNL1        0.0786
     11 C         142.5430  138.2540  156.8403 C.3     1  UNL1        0.0538
     12 C         141.5529  138.4886  159.3121 C.ar    1  UNL1        0.0963
     13 C         138.8605  139.1442  165.7270 C.ar    1  UNL1        0.1233
     14 C         139.5848  139.9286  166.7807 C.ar    1  UNL1        0.1179
     15 N         138.8997  139.6852  168.0927 N.ar    1  UNL1       -0.2257
     16 N         137.7519  138.7504  167.8499 N.ar    1  UNL1       -0.0635
     17 N         137.7277  138.4161  166.3878 N.ar    1  UNL1       -0.1287
     18 C         139.2932  140.2734  169.4153 C.3     1  UNL1        0.1556
     19 C         140.6478  140.8943  169.5868 C.ar    1  UNL1        0.0023
     20 C         141.8445  140.0256  169.8392 C.ar    1  UNL1       -0.0000
     21 C         143.1991  140.6464  170.0107 C.ar    1  UNL1        0.0294
     22 C         143.3572  142.1359  169.9298 C.ar    1  UNL1        0.1401
     23 F         144.7119  142.7568  170.1012 F       1  UNL1       -0.2042
     24 C         142.1606  143.0045  169.6774 C.ar    1  UNL1        0.0294
     25 C         140.8060  142.3836  169.5059 C.ar    1  UNL1       -0.0000
     26 C         142.0397  142.1057  162.3283 C.3     1  UNL1        0.2525
     27 O         141.0186  141.3395  161.5409 O.3     1  UNL1       -0.4700
@<TRIPOS>BOND
     1    26    27    1
     2    27     1    1
     3     1     2   ar
     4     2     3   ar
     5     3    13    1
     6    13    14   ar
     7    14    15   ar
     8    15    18    1
     9    18    19    1
    10    19    20   ar
    11    20    21   ar
    12    21    22   ar
    13    22    23    1
    14    22    24   ar
    15    24    25   ar
    16    15    16   ar
    17    16    17   ar
    18     3     4   ar
    19     4     5   ar
    20     5     6   ar
    21     6     7    1
    22     7     8   ar
    23     8     9   ar
    24     9    10   ar
    25    10    11    1
    26    10    12   ar
    27     6     1   ar
    28    12     7   ar
    29    17    13   ar
    30    25    19   ar
@<TRIPOS>MOLECULE
*****
 27 30 0 0 0
SMALL
GASTEIGER

@<TRIPOS>ATOM
      1 C         140.0467  138.4348  163.8056 C.ar    1  UNL1        0.1547
      2 C         140.2137  138.3747  162.3162 C.ar    1  UNL1        0.0400
      3 C         139.2805  139.1399  161.4253 C.ar    1  UNL1        0.0241
      4 C         138.1802  139.9651  162.0240 C.ar    1  UNL1        0.0033
      5 C         138.0132  140.0252  163.5134 C.ar    1  UNL1        0.0207
      6 C         138.9465  139.2600  164.4042 C.ar    1  UNL1        0.0994
      7 N         138.7795  139.3201  165.8937 N.ar    1  UNL1       -0.2839
      8 C         137.7684  138.5591  166.6990 C.ar    1  UNL1        0.1826
      9 N         137.9582  138.9204  168.1423 N.ar    1  UNL1       -0.2280
     10 C         139.0867  139.9049  168.2292 C.ar    1  UNL1        0.0786
     11 C         139.6149  140.5322  169.4852 C.3     1  UNL1        0.0538
     12 C         139.5942  140.1519  166.8394 C.ar    1  UNL1        0.0963
     13 C         139.4475  139.0798  159.9358 C.ar    1  UNL1        0.1233
     14 C         140.6562  138.5767  159.2037 C.ar    1  UNL1        0.1179
     15 N         140.3909  138.6982  157.7324 N.ar    1  UNL1       -0.2257
     16 N         139.0181  139.2764  157.5551 N.ar    1  UNL1       -0.0635
     17 N         138.4351  139.5122  158.9169 N.ar    1  UNL1       -0.1287
     18 C         141.3328  138.3097  156.6316 C.3     1  UNL1        0.1556
     19 C         141.7088  136.8704  156.4393 C.ar    1  UNL1        0.0023
     20 C         140.9444  136.0187  155.4694 C.ar    1  UNL1       -0.0000
     21 C         141.3204  134.5794  155.2771 C.ar    1  UNL1        0.0294
     22 C         142.4608  133.9918  156.0545 C.ar    1  UNL1        0.1401
     23 F         142.8368  132.5525  155.8622 F       1  UNL1       -0.2042
     24 C         143.2251  134.8434  157.0243 C.ar    1  UNL1        0.0294
     25 C         142.8491  136.2828  157.2166 C.ar    1  UNL1       -0.0000
     26 C         142.3357  138.2258  165.0166 C.3     1  UNL1        0.2525
     27 O         140.9800  137.6696  164.6964 O.3     1  UNL1       -0.4700
@<TRIPOS>BOND
     1    26    27    1
     2    27     1    1
     3     1     2   ar
     4     2     3   ar
     5     3    13    1
     6    13    14   ar
     7    14    15   ar
     8    15    18    1
     9    18    19    1
    10    19    20   ar
    11    20    21   ar
    12    21    22   ar
    13    22    23    1
    14    22    24   ar
    15    24    25   ar
    16    15    16   ar
    17    16    17   ar
    18     3     4   ar
    19     4     5   ar
    20     5     6   ar
    21     6     7    1
    22     7     8   ar
    23     8     9   ar
    24     9    10   ar
    25    10    11    1
    26    10    12   ar
    27     6     1   ar
    28    12     7   ar
    29    17    13   ar
    30    25    19   ar
@<TRIPOS>MOLECULE
*****
 27 30 0 0 0
SMALL
GASTEIGER

@<TRIPOS>ATOM
      1 C         140.7915  142.4057  161.6499 C.ar    1  UNL1        0.1547
      2 C         140.6017  141.6251  162.9166 C.ar    1  UNL1        0.0400
      3 C         139.2635  141.6085  163.5940 C.ar    1  UNL1        0.0241
      4 C         138.1150  142.3726  163.0046 C.ar    1  UNL1        0.0033
      5 C         138.3049  143.1532  161.7380 C.ar    1  UNL1        0.0207
      6 C         139.6431  143.1698  161.0606 C.ar    1  UNL1        0.0994
      7 N         139.8329  143.9505  159.7939 N.ar    1  UNL1       -0.2839
      8 C         140.2872  145.3767  159.6968 C.ar    1  UNL1        0.1826
      9 N         140.3368  145.7496  158.2448 N.ar    1  UNL1       -0.2280
     10 C         139.9132  144.5538  157.4443 C.ar    1  UNL1        0.0786
     11 C         139.8177  144.4825  155.9491 C.3     1  UNL1        0.0538
     12 C         139.6018  143.4419  158.4017 C.ar    1  UNL1        0.0963
     13 C         139.0737  140.8278  164.8607 C.ar    1  UNL1        0.1233
     14 C         139.7263  141.1160  166.1802 C.ar    1  UNL1        0.1179
     15 N         139.2539  140.0882  167.1653 N.ar    1  UNL1       -0.2257
     16 N         138.3092  139.1648  166.4546 N.ar    1  UNL1       -0.0635
     17 N         138.1978  139.6219  165.0304 N.ar    1  UNL1       -0.1287
     18 C         139.6556  139.9994  168.6078 C.3     1  UNL1        0.1556
     19 C         140.6623  140.9608  169.1666 C.ar    1  UNL1        0.0023
     20 C         142.0771  140.5171  169.3944 C.ar    1  UNL1       -0.0000
     21 C         143.0837  141.4786  169.9532 C.ar    1  UNL1        0.0294
     22 C         142.6757  142.8836  170.2842 C.ar    1  UNL1        0.1401
     23 F         143.6824  143.8450  170.8430 F       1  UNL1       -0.2042
     24 C         141.2611  143.3271  170.0564 C.ar    1  UNL1        0.0294
     25 C         140.2544  142.3657  169.4976 C.ar    1  UNL1       -0.0000
     26 C         143.1772  143.4050  161.4052 C.3     1  UNL1        0.2525
     27 O         142.1298  142.4223  160.9726 O.3     1  UNL1       -0.4700
@<TRIPOS>BOND
     1    26    27    1
     2    27     1    1
     3     1     2   ar
     4     2     3   ar
     5     3    13    1
     6    13    14   ar
     7    14    15   ar
     8    15    18    1
     9    18    19    1
    10    19    20   ar
    11    20    21   ar
    12    21    22   ar
    13    22    23    1
    14    22    24   ar
    15    24    25   ar
    16    15    16   ar
    17    16    17   ar
    18     3     4   ar
    19     4     5   ar
    20     5     6   ar
    21     6     7    1
    22     7     8   ar
    23     8     9   ar
    24     9    10   ar
    25    10    11    1
    26    10    12   ar
    27     6     1   ar
    28    12     7   ar
    29    17    13   ar
    30    25    19   ar
@<TRIPOS>MOLECULE
*****
 27 30 0 0 0
SMALL
GASTEIGER

@<TRIPOS>ATOM
      1 C         142.0773  140.2013  164.1128 C.ar    1  UNL1        0.1547
      2 C         141.9968  139.9730  162.6325 C.ar    1  UNL1        0.0400
      3 C         141.6571  138.6121  162.1008 C.ar    1  UNL1        0.0241
      4 C         141.3979  137.4795  163.0495 C.ar    1  UNL1        0.0033
      5 C         141.4784  137.7078  164.5298 C.ar    1  UNL1        0.0207
      6 C         141.8181  139.0687  165.0615 C.ar    1  UNL1        0.0994
      7 N         141.8986  139.2970  166.5419 N.ar    1  UNL1       -0.2839
      8 C         143.0829  139.0071  167.4155 C.ar    1  UNL1        0.1826
      9 N         142.7252  139.3861  168.8221 N.ar    1  UNL1       -0.2280
     10 C         141.3197  139.9103  168.8177 C.ar    1  UNL1        0.0786
     11 C         140.5587  140.4031  170.0127 C.3     1  UNL1        0.0538
     12 C         140.8089  139.8552  167.4084 C.ar    1  UNL1        0.0963
     13 C         141.5766  138.3839  160.6205 C.ar    1  UNL1        0.1233
     14 C         142.6298  137.7387  159.7693 C.ar    1  UNL1        0.1179
     15 N         142.1328  137.7168  158.3542 N.ar    1  UNL1       -0.2257
     16 N         140.7725  138.3485  158.3307 N.ar    1  UNL1       -0.0635
     17 N         140.4288  138.7608  159.7314 N.ar    1  UNL1       -0.1287
     18 C         142.8673  137.1608  157.1703 C.3     1  UNL1        0.1556
     19 C         142.6186  135.7490  156.7287 C.ar    1  UNL1        0.0023
     20 C         143.3841  134.6214  157.3553 C.ar    1  UNL1       -0.0000
     21 C         143.1354  133.2096  156.9137 C.ar    1  UNL1        0.0294
     22 C         142.1213  132.9254  155.8456 C.ar    1  UNL1        0.1401
     23 F         141.8726  131.5136  155.4040 F       1  UNL1       -0.2042
     24 C         141.3558  134.0530  155.2191 C.ar    1  UNL1        0.0294
     25 C         141.6045  135.4648  155.6607 C.ar    1  UNL1       -0.0000
     26 C         141.3531  142.6146  164.7464 C.3     1  UNL1        0.2525
     27 O         142.4170  141.5622  164.6444 O.3     1  UNL1       -0.4700
@<TRIPOS>BOND
     1    26    27    1
     2    27     1    1
     3     1     2   ar
     4     2     3   ar
     5     3    13    1
     6    13    14   ar
     7    14    15   ar
     8    15    18    1
     9    18    19    1
    10    19    20   ar
    11    20    21   ar
    12    21    22   ar
    13    22    23    1
    14    22    24   ar
    15    24    25   ar
    16    15    16   ar
    17    16    17   ar
    18     3     4   ar
    19     4     5   ar
    20     5     6   ar
    21     6     7    1
    22     7     8   ar
    23     8     9   ar
    24     9    10   ar
    25    10    11    1
    26    10    12   ar
    27     6     1   ar
    28    12     7   ar
    29    17    13   ar
    30    25    19   ar
@<TRIPOS>MOLECULE
*****
 27 30 0 0 0
SMALL
GASTEIGER

@<TRIPOS>ATOM
      1 C         139.4239  140.0916  161.6213 C.ar    1  UNL1        0.1547
      2 C         139.3778  139.6410  163.0512 C.ar    1  UNL1        0.0400
      3 C         138.5626  140.4048  164.0523 C.ar    1  UNL1        0.0241
      4 C         137.7937  141.6191  163.6235 C.ar    1  UNL1        0.0033
      5 C         137.8398  142.0697  162.1935 C.ar    1  UNL1        0.0207
      6 C         138.6550  141.3059  161.1924 C.ar    1  UNL1        0.0994
      7 N         138.7011  141.7566  159.7624 N.ar    1  UNL1       -0.2839
      8 C         139.2741  143.0500  159.2636 C.ar    1  UNL1        0.1826
      9 N         139.1095  143.0857  157.7731 N.ar    1  UNL1       -0.2280
     10 C         138.4347  141.8143  157.3507 C.ar    1  UNL1        0.0786
     11 C         138.0754  141.4316  155.9456 C.3     1  UNL1        0.0538
     12 C         138.1823  140.9929  158.5802 C.ar    1  UNL1        0.0963
     13 C         138.5165  139.9541  165.4823 C.ar    1  UNL1        0.1233
     14 C         139.2162  140.6090  166.6362 C.ar    1  UNL1        0.1179
     15 N         138.8947  139.8291  167.8765 N.ar    1  UNL1       -0.2257
     16 N         137.9962  138.6921  167.4891 N.ar    1  UNL1       -0.0635
     17 N         137.7625  138.7694  166.0095 N.ar    1  UNL1       -0.1287
     18 C         139.3855  140.1328  169.2610 C.3     1  UNL1        0.1556
     19 C         140.7405  140.7450  169.4590 C.ar    1  UNL1        0.0023
     20 C         140.9404  142.2141  169.2307 C.ar    1  UNL1       -0.0000
     21 C         142.2954  142.8263  169.4287 C.ar    1  UNL1        0.0294
     22 C         143.4505  141.9694  169.8549 C.ar    1  UNL1        0.1401
     23 F         144.8055  142.5816  170.0529 F       1  UNL1       -0.2042
     24 C         143.2505  140.5005  170.0832 C.ar    1  UNL1        0.0294
     25 C         141.8955  139.8883  169.8852 C.ar    1  UNL1       -0.0000
     26 C         141.6603  139.7246  160.3508 C.3     1  UNL1        0.2525
     27 O         140.2390  139.3278  160.6202 O.3     1  UNL1       -0.4700
@<TRIPOS>BOND
     1    26    27    1
     2    27     1    1
     3     1     2   ar
     4     2     3   ar
     5     3    13    1
     6    13    14   ar
     7    14    15   ar
     8    15    18    1
     9    18    19    1
    10    19    20   ar
    11    20    21   ar
    12    21    22   ar
    13    22    23    1
    14    22    24   ar
    15    24    25   ar
    16    15    16   ar
    17    16    17   ar
    18     3     4   ar
    19     4     5   ar
    20     5     6   ar
    21     6     7    1
    22     7     8   ar
    23     8     9   ar
    24     9    10   ar
    25    10    11    1
    26    10    12   ar
    27     6     1   ar
    28    12     7   ar
    29    17    13   ar
    30    25    19   ar
@<TRIPOS>MOLECULE
*****
 27 30 0 0 0
SMALL
GASTEIGER

@<TRIPOS>ATOM
      1 C         140.2668  139.6316  161.2617 C.ar    1  UNL1        0.1547
      2 C         140.9222  139.4208  159.9291 C.ar    1  UNL1        0.0400
      3 C         142.0667  138.4598  159.7998 C.ar    1  UNL1        0.0241
      4 C         142.5557  137.7097  161.0031 C.ar    1  UNL1        0.0033
      5 C         141.9003  137.9205  162.3358 C.ar    1  UNL1        0.0207
      6 C         140.7558  138.8815  162.4651 C.ar    1  UNL1        0.0994
      7 N         140.1004  139.0923  163.7978 N.ar    1  UNL1       -0.2839
      8 C         140.3579  140.2337  164.7363 C.ar    1  UNL1        0.1826
      9 N         139.4891  140.0455  165.9444 N.ar    1  UNL1       -0.2280
     10 C         138.6946  138.7877  165.7526 C.ar    1  UNL1        0.0786
     11 C         137.6973  138.2189  166.7180 C.3     1  UNL1        0.0538
     12 C         139.0724  138.1986  164.4259 C.ar    1  UNL1        0.0963
     13 C         142.7221  138.2490  158.4671 C.ar    1  UNL1        0.1233
     14 C         142.8088  136.9496  157.7229 C.ar    1  UNL1        0.1179
     15 N         143.5462  137.1981  156.4405 N.ar    1  UNL1       -0.2257
     16 N         143.9152  138.6513  156.3921 N.ar    1  UNL1       -0.0635
     17 N         143.4058  139.3007  157.6446 N.ar    1  UNL1       -0.1287
     18 C         143.8595  136.1735  155.3908 C.3     1  UNL1        0.1556
     19 C         143.1776  134.8378  155.4192 C.ar    1  UNL1        0.0023
     20 C         142.0209  134.5666  154.5034 C.ar    1  UNL1       -0.0000
     21 C         141.3389  133.2309  154.5318 C.ar    1  UNL1        0.0294
     22 C         141.8136  132.1664  155.4760 C.ar    1  UNL1        0.1401
     23 F         141.1316  130.8307  155.5045 F       1  UNL1       -0.2042
     24 C         142.9702  132.4376  156.3918 C.ar    1  UNL1        0.0294
     25 C         143.6522  133.7733  156.3633 C.ar    1  UNL1       -0.0000
     26 C         137.7121  140.1041  161.2399 C.3     1  UNL1        0.2525
     27 O         139.1223  140.5925  161.3910 O.3     1  UNL1       -0.4700
@<TRIPOS>BOND
     1    26    27    1
     2    27     1    1
     3     1     2   ar
     4     2     3   ar
     5     3    13    1
     6    13    14   ar
     7    14    15   ar
     8    15    18    1
     9    18    19    1
    10    19    20   ar
    11    20    21   ar
    12    21    22   ar
    13    22    23    1
    14    22    24   ar
    15    24    25   ar
    16    15    16   ar
    17    16    17   ar
    18     3     4   ar
    19     4     5   ar
    20     5     6   ar
    21     6     7    1
    22     7     8   ar
    23     8     9   ar
    24     9    10   ar
    25    10    11    1
    26    10    12   ar
    27     6     1   ar
    28    12     7   ar
    29    17    13   ar
    30    25    19   ar
@<TRIPOS>MOLECULE
*****
 27 30 0 0 0
SMALL
GASTEIGER

@<TRIPOS>ATOM
      1 C         140.6010  141.5324  164.8219 C.ar    1  UNL1        0.1547
      2 C         140.2360  142.3781  163.6381 C.ar    1  UNL1        0.0400
      3 C         141.1540  143.4761  163.1891 C.ar    1  UNL1        0.0241
      4 C         142.4370  143.7285  163.9240 C.ar    1  UNL1        0.0033
      5 C         142.8021  142.8828  165.1078 C.ar    1  UNL1        0.0207
      6 C         141.8841  141.7848  165.5568 C.ar    1  UNL1        0.0994
      7 N         142.2492  140.9391  166.7407 N.ar    1  UNL1       -0.2839
      8 C         142.7386  139.5220  166.6946 C.ar    1  UNL1        0.1826
      9 N         142.9808  139.0692  168.1040 N.ar    1  UNL1       -0.2280
     10 C         142.6411  140.2065  169.0212 C.ar    1  UNL1        0.0786
     11 C         142.7367  140.1909  170.5180 C.3     1  UNL1        0.0538
     12 C         142.1889  141.3622  168.1786 C.ar    1  UNL1        0.0963
     13 C         140.7889  144.3218  162.0052 C.ar    1  UNL1        0.1233
     14 C         141.4470  144.2836  160.6578 C.ar    1  UNL1        0.1179
     15 N         140.7664  145.2923  159.7807 N.ar    1  UNL1       -0.2257
     16 N         139.6877  145.9540  160.5860 N.ar    1  UNL1       -0.0635
     17 N         139.7016  145.3542  161.9608 N.ar    1  UNL1       -0.1287
     18 C         141.1051  145.5875  158.3496 C.3     1  UNL1        0.1556
     19 C         140.0629  145.4246  157.2832 C.ar    1  UNL1        0.0023
     20 C         139.6308  146.6086  156.4697 C.ar    1  UNL1       -0.0000
     21 C         138.5886  146.4457  155.4033 C.ar    1  UNL1        0.0294
     22 C         137.9784  145.0989  155.1504 C.ar    1  UNL1        0.1401
     23 F         136.9362  144.9360  154.0840 F       1  UNL1       -0.2042
     24 C         138.4105  143.9151  155.9639 C.ar    1  UNL1        0.0294
     25 C         139.4527  144.0780  157.0302 C.ar    1  UNL1       -0.0000
     26 C         139.6254  139.1453  164.5061 C.3     1  UNL1        0.2525
     27 O         139.6830  140.4344  165.2709 O.3     1  UNL1       -0.4700
@<TRIPOS>BOND
     1    26    27    1
     2    27     1    1
     3     1     2   ar
     4     2     3   ar
     5     3    13    1
     6    13    14   ar
     7    14    15   ar
     8    15    18    1
     9    18    19    1
    10    19    20   ar
    11    20    21   ar
    12    21    22   ar
    13    22    23    1
    14    22    24   ar
    15    24    25   ar
    16    15    16   ar
    17    16    17   ar
    18     3     4   ar
    19     4     5   ar
    20     5     6   ar
    21     6     7    1
    22     7     8   ar
    23     8     9   ar
    24     9    10   ar
    25    10    11    1
    26    10    12   ar
    27     6     1   ar
    28    12     7   ar
    29    17    13   ar
    30    25    19   ar
