@<TRIPOS>MOLECULE
*****
 35 39 0 0 0
SMALL
GASTEIGER

@<TRIPOS>ATOM
      1 C         140.9286  140.2641  167.6188 C.2     1  UNL1       -0.0221
      2 C         141.4011  141.6817  167.4883 C.2     1  UNL1       -0.0040
      3 C         142.0761  142.3568  168.6454 C.ar    1  UNL1       -0.0001
      4 C         143.5407  142.1428  168.8882 C.ar    1  UNL1        0.0031
      5 C         144.2156  142.8180  170.0452 C.ar    1  UNL1        0.0366
      6 C         143.4258  143.7071  170.9594 C.ar    1  UNL1        0.1337
      7 O         144.1008  144.3822  172.1165 O.3     1  UNL1       -0.5055
      8 C         141.9612  143.9211  170.7166 C.ar    1  UNL1        0.0366
      9 C         141.2863  143.2460  169.5596 C.ar    1  UNL1        0.0031
     10 H         145.0157  144.2485  172.2681 H       1  UNL1        0.2922
     11 C         141.1988  142.4242  166.2008 C.ar    1  UNL1       -0.0003
     12 C         139.9741  143.2681  166.0062 C.ar    1  UNL1       -0.0003
     13 C         139.7717  144.0107  164.7187 C.ar    1  UNL1       -0.0042
     14 C         140.7940  143.9093  163.6258 C.ar    1  UNL1       -0.0211
     15 C         142.0188  143.0654  163.8203 C.ar    1  UNL1       -0.0042
     16 C         142.2212  142.3229  165.1078 C.ar    1  UNL1       -0.0003
     17 C         140.5916  144.6519  162.3383 C.3     1  UNL1        0.0397
     18 C         139.6608  145.8085  162.1245 C.3     1  UNL1        0.0231
     19 C         139.7784  146.2397  160.6926 C.3     1  UNL1        0.0724
     20 N         140.7819  145.3495  160.0214 N.3     1  UNL1       -0.2737
     21 C         141.2845  144.3682  161.0385 C.3     1  UNL1        0.0764
     22 C         141.2080  145.4269  158.5853 C.3     1  UNL1        0.0576
     23 C         140.9676  145.1060  157.1399 C.3     1  UNL1        0.0173
     24 C         142.1864  145.8819  157.5433 C.3     1  UNL1        0.0173
     25 C         140.2537  139.5890  166.4617 C.ar    1  UNL1       -0.0040
     26 C         138.7752  139.7438  166.2615 C.ar    1  UNL1       -0.0003
     27 C         138.1004  139.0687  165.1045 C.ar    1  UNL1       -0.0000
     28 C         138.9040  138.2387  164.1477 C.ar    1  UNL1       -0.0000
     29 C         140.3824  138.0839  164.3479 C.ar    1  UNL1       -0.0000
     30 C         141.0573  138.7590  165.5050 C.ar    1  UNL1       -0.0003
     31 C         141.1310  139.5215  168.9063 C.3     1  UNL1        0.0289
     32 C         140.3191  139.8814  170.1152 C.3     1  UNL1        0.0364
     33 O         137.8087  139.5077  170.6704 O.3     1  UNL1       -0.3820
     34 C         138.8813  140.2803  169.9615 C.3     1  UNL1        0.1375
     35 H         136.9429  139.8939  170.4654 H       1  UNL1        0.2104
@<TRIPOS>BOND
     1    33    34    1
     2    34    32    1
     3    32    31    1
     4    31     1    1
     5     1     2    2
     6     2     3    1
     7     3     4   ar
     8     4     5   ar
     9     5     6   ar
    10     6     7    1
    11     6     8   ar
    12     8     9   ar
    13     2    11    1
    14    11    12   ar
    15    12    13   ar
    16    13    14   ar
    17    14    17    1
    18    17    18    1
    19    18    19    1
    20    19    20    1
    21    20    22    1
    22    22    23    1
    23    23    24    1
    24    20    21    1
    25    14    15   ar
    26    15    16   ar
    27     1    25    1
    28    25    26   ar
    29    26    27   ar
    30    27    28   ar
    31    28    29   ar
    32    29    30   ar
    33     9     3   ar
    34    16    11   ar
    35    30    25   ar
    36    21    17    1
    37    24    22    1
    38    33    35    1
    39     7    10    1
@<TRIPOS>MOLECULE
*****
 35 39 0 0 0
SMALL
GASTEIGER

@<TRIPOS>ATOM
      1 C         142.3063  140.0596  165.7877 C.2     1  UNL1       -0.0221
      2 C         140.9462  140.0853  165.1556 C.2     1  UNL1       -0.0040
      3 C         139.8010  139.3718  165.8111 C.ar    1  UNL1       -0.0001
      4 C         139.1523  139.9565  167.0306 C.ar    1  UNL1        0.0031
      5 C         138.0071  139.2431  167.6859 C.ar    1  UNL1        0.0366
      6 C         137.5106  137.9449  167.1217 C.ar    1  UNL1        0.1337
      7 O         136.3654  137.2315  167.7771 O.3     1  UNL1       -0.5055
      8 C         138.1593  137.3602  165.9022 C.ar    1  UNL1        0.0366
      9 C         139.3045  138.0737  165.2469 C.ar    1  UNL1        0.0031
     10 H         135.9602  137.5967  168.5390 H       1  UNL1        0.2922
     11 C         140.7313  140.8244  163.8682 C.ar    1  UNL1       -0.0003
     12 C         140.2171  142.2333  163.8890 C.ar    1  UNL1       -0.0003
     13 C         140.0022  142.9724  162.6016 C.ar    1  UNL1       -0.0042
     14 C         140.3015  142.3026  161.2933 C.ar    1  UNL1       -0.0211
     15 C         140.8157  140.8936  161.2724 C.ar    1  UNL1       -0.0042
     16 C         141.0306  140.1545  162.5598 C.ar    1  UNL1       -0.0003
     17 C         140.0866  143.0417  160.0058 C.3     1  UNL1        0.0397
     18 C         140.7176  144.3475  159.6229 C.3     1  UNL1        0.0231
     19 C         140.2239  144.7177  158.2557 C.3     1  UNL1        0.0724
     20 N         139.2878  143.6405  157.7936 N.3     1  UNL1       -0.2737
     21 C         139.2030  142.6048  158.8752 C.3     1  UNL1        0.0764
     22 C         138.5637  143.6053  156.4804 C.3     1  UNL1        0.0576
     23 C         137.2797  143.5805  155.7053 C.3     1  UNL1        0.0173
     24 C         138.5934  143.5692  154.9811 C.3     1  UNL1        0.0173
     25 C         143.4515  140.7730  165.1323 C.ar    1  UNL1       -0.0040
     26 C         144.3800  140.0241  164.2229 C.ar    1  UNL1       -0.0003
     27 C         145.5252  140.7376  163.5676 C.ar    1  UNL1       -0.0000
     28 C         145.7419  142.1999  163.8216 C.ar    1  UNL1       -0.0000
     29 C         144.8134  142.9489  164.7309 C.ar    1  UNL1       -0.0000
     30 C         143.6682  142.2354  165.3863 C.ar    1  UNL1       -0.0003
     31 C         142.5212  139.3205  167.0751 C.3     1  UNL1        0.0289
     32 C         142.6046  140.0756  168.3686 C.3     1  UNL1        0.0364
     33 O         142.9373  138.3952  170.3219 O.3     1  UNL1       -0.3820
     34 C         142.1132  139.4455  169.6380 C.3     1  UNL1        0.1375
     35 H         142.4789  138.0949  171.1222 H       1  UNL1        0.2104
@<TRIPOS>BOND
     1    33    34    1
     2    34    32    1
     3    32    31    1
     4    31     1    1
     5     1     2    2
     6     2     3    1
     7     3     4   ar
     8     4     5   ar
     9     5     6   ar
    10     6     7    1
    11     6     8   ar
    12     8     9   ar
    13     2    11    1
    14    11    12   ar
    15    12    13   ar
    16    13    14   ar
    17    14    17    1
    18    17    18    1
    19    18    19    1
    20    19    20    1
    21    20    22    1
    22    22    23    1
    23    23    24    1
    24    20    21    1
    25    14    15   ar
    26    15    16   ar
    27     1    25    1
    28    25    26   ar
    29    26    27   ar
    30    27    28   ar
    31    28    29   ar
    32    29    30   ar
    33     9     3   ar
    34    16    11   ar
    35    30    25   ar
    36    21    17    1
    37    24    22    1
    38    33    35    1
    39     7    10    1
@<TRIPOS>MOLECULE
*****
 35 39 0 0 0
SMALL
GASTEIGER

@<TRIPOS>ATOM
      1 C         142.2130  140.0576  165.8245 C.2     1  UNL1       -0.0221
      2 C         140.8487  140.0268  165.2019 C.2     1  UNL1       -0.0040
      3 C         139.7121  139.3598  165.9184 C.ar    1  UNL1       -0.0001
      4 C         139.1240  138.0914  165.3751 C.ar    1  UNL1        0.0031
      5 C         137.9875  137.4245  166.0917 C.ar    1  UNL1        0.0366
      6 C         137.4390  138.0260  167.3516 C.ar    1  UNL1        0.1337
      7 O         136.3024  137.3591  168.0681 O.3     1  UNL1       -0.5055
      8 C         138.0271  139.2944  167.8949 C.ar    1  UNL1        0.0366
      9 C         139.1636  139.9613  167.1784 C.ar    1  UNL1        0.0031
     10 H         135.9351  136.5667  167.7287 H       1  UNL1        0.2922
     11 C         140.6209  140.6629  163.8626 C.ar    1  UNL1       -0.0003
     12 C         140.1745  142.0924  163.7775 C.ar    1  UNL1       -0.0003
     13 C         139.9468  142.7285  162.4383 C.ar    1  UNL1       -0.0042
     14 C         140.1653  141.9351  161.1842 C.ar    1  UNL1       -0.0211
     15 C         140.6117  140.5055  161.2693 C.ar    1  UNL1       -0.0042
     16 C         140.8395  139.8694  162.6085 C.ar    1  UNL1       -0.0003
     17 C         139.9375  142.5712  159.8450 C.3     1  UNL1        0.0397
     18 C         139.1686  141.9733  158.7043 C.3     1  UNL1        0.0231
     19 C         139.1945  142.9495  157.5656 C.3     1  UNL1        0.0724
     20 N         139.9795  144.1507  158.0027 N.3     1  UNL1       -0.2737
     21 C         140.4387  143.9168  159.4114 C.3     1  UNL1        0.0764
     22 C         140.2566  145.3713  157.1761 C.3     1  UNL1        0.0576
     23 C         141.2018  146.1961  156.3537 C.3     1  UNL1        0.0173
     24 C         139.7916  146.6607  156.5670 C.3     1  UNL1        0.0173
     25 C         143.3496  140.7245  165.1079 C.ar    1  UNL1       -0.0040
     26 C         143.6126  142.1866  165.3159 C.ar    1  UNL1       -0.0003
     27 C         144.7491  142.8534  164.5993 C.ar    1  UNL1       -0.0000
     28 C         145.6226  142.0583  163.6748 C.ar    1  UNL1       -0.0000
     29 C         145.3596  140.5963  163.4668 C.ar    1  UNL1       -0.0000
     30 C         144.2231  139.9294  164.1834 C.ar    1  UNL1       -0.0003
     31 C         142.4408  139.4215  167.1637 C.3     1  UNL1        0.0289
     32 C         142.6423  140.2799  168.3772 C.3     1  UNL1        0.0364
     33 O         143.5241  139.8566  170.7841 O.3     1  UNL1       -0.3820
     34 C         142.4520  139.6988  169.7469 C.3     1  UNL1        0.1375
     35 H         143.2438  139.4260  171.6069 H       1  UNL1        0.2104
@<TRIPOS>BOND
     1    33    34    1
     2    34    32    1
     3    32    31    1
     4    31     1    1
     5     1     2    2
     6     2     3    1
     7     3     4   ar
     8     4     5   ar
     9     5     6   ar
    10     6     7    1
    11     6     8   ar
    12     8     9   ar
    13     2    11    1
    14    11    12   ar
    15    12    13   ar
    16    13    14   ar
    17    14    17    1
    18    17    18    1
    19    18    19    1
    20    19    20    1
    21    20    22    1
    22    22    23    1
    23    23    24    1
    24    20    21    1
    25    14    15   ar
    26    15    16   ar
    27     1    25    1
    28    25    26   ar
    29    26    27   ar
    30    27    28   ar
    31    28    29   ar
    32    29    30   ar
    33     9     3   ar
    34    16    11   ar
    35    30    25   ar
    36    21    17    1
    37    24    22    1
    38    33    35    1
    39     7    10    1
@<TRIPOS>MOLECULE
*****
 35 39 0 0 0
SMALL
GASTEIGER

@<TRIPOS>ATOM
      1 C         141.6304  141.5855  164.9957 C.2     1  UNL1       -0.0221
      2 C         140.4550  140.9515  164.3128 C.2     1  UNL1       -0.0040
      3 C         139.6528  139.9008  165.0216 C.ar    1  UNL1       -0.0001
      4 C         138.8449  140.2636  166.2322 C.ar    1  UNL1        0.0031
      5 C         138.0427  139.2128  166.9410 C.ar    1  UNL1        0.0366
      6 C         138.0484  137.7993  166.4391 C.ar    1  UNL1        0.1337
      7 O         137.2461  136.7485  167.1479 O.3     1  UNL1       -0.5055
      8 C         138.8563  137.4365  165.2285 C.ar    1  UNL1        0.0366
      9 C         139.6585  138.4872  164.5198 C.ar    1  UNL1        0.0031
     10 H         136.7415  136.9751  167.9042 H       1  UNL1        0.2922
     11 C         140.0818  141.3683  162.9210 C.ar    1  UNL1       -0.0003
     12 C         138.9960  142.3808  162.7070 C.ar    1  UNL1       -0.0003
     13 C         138.6228  142.7976  161.3153 C.ar    1  UNL1       -0.0042
     14 C         139.3353  142.2017  160.1375 C.ar    1  UNL1       -0.0211
     15 C         140.4211  141.1891  160.3514 C.ar    1  UNL1       -0.0042
     16 C         140.7943  140.7724  161.7432 C.ar    1  UNL1       -0.0003
     17 C         138.9621  142.6185  158.7457 C.3     1  UNL1        0.0397
     18 C         139.6684  143.6480  157.9143 C.3     1  UNL1        0.0231
     19 C         138.9599  143.7447  156.5957 C.3     1  UNL1        0.0724
     20 N         137.8156  142.7749  156.6122 N.3     1  UNL1       -0.2737
     21 C         137.8170  142.0789  157.9409 C.3     1  UNL1        0.0764
     22 C         136.8411  142.5420  155.4959 C.3     1  UNL1        0.0576
     23 C         136.2520  142.9527  154.1790 C.3     1  UNL1        0.0173
     24 C         135.7424  141.7280  154.8793 C.3     1  UNL1        0.0173
     25 C         142.4326  142.6363  164.2869 C.ar    1  UNL1       -0.0040
     26 C         143.6854  142.2565  163.5545 C.ar    1  UNL1       -0.0003
     27 C         144.4875  143.3072  162.8458 C.ar    1  UNL1       -0.0000
     28 C         144.0370  144.7378  162.8694 C.ar    1  UNL1       -0.0000
     29 C         142.7843  145.1176  163.6017 C.ar    1  UNL1       -0.0000
     30 C         141.9821  144.0668  164.3105 C.ar    1  UNL1       -0.0003
     31 C         142.0036  141.1688  166.3875 C.3     1  UNL1        0.0289
     32 C         142.9932  141.9777  167.1727 C.3     1  UNL1        0.0364
     33 O         143.9752  142.7219  169.4600 O.3     1  UNL1       -0.3820
     34 C         142.9254  141.9971  168.6710 C.3     1  UNL1        0.1375
     35 H         143.7842  142.6367  170.4072 H       1  UNL1        0.2104
@<TRIPOS>BOND
     1    33    34    1
     2    34    32    1
     3    32    31    1
     4    31     1    1
     5     1     2    2
     6     2     3    1
     7     3     4   ar
     8     4     5   ar
     9     5     6   ar
    10     6     7    1
    11     6     8   ar
    12     8     9   ar
    13     2    11    1
    14    11    12   ar
    15    12    13   ar
    16    13    14   ar
    17    14    17    1
    18    17    18    1
    19    18    19    1
    20    19    20    1
    21    20    22    1
    22    22    23    1
    23    23    24    1
    24    20    21    1
    25    14    15   ar
    26    15    16   ar
    27     1    25    1
    28    25    26   ar
    29    26    27   ar
    30    27    28   ar
    31    28    29   ar
    32    29    30   ar
    33     9     3   ar
    34    16    11   ar
    35    30    25   ar
    36    21    17    1
    37    24    22    1
    38    33    35    1
    39     7    10    1
@<TRIPOS>MOLECULE
*****
 35 39 0 0 0
SMALL
GASTEIGER

@<TRIPOS>ATOM
      1 C         141.6110  141.5563  164.9945 C.2     1  UNL1       -0.0221
      2 C         140.4365  140.9290  164.3038 C.2     1  UNL1       -0.0040
      3 C         139.6374  139.8666  164.9988 C.ar    1  UNL1       -0.0001
      4 C         138.7186  140.2358  166.1255 C.ar    1  UNL1        0.0031
      5 C         137.9196  139.1735  166.8204 C.ar    1  UNL1        0.0366
      6 C         138.0393  137.7420  166.3886 C.ar    1  UNL1        0.1337
      7 O         137.2402  136.6796  167.0836 O.3     1  UNL1       -0.5055
      8 C         138.9581  137.3728  165.2619 C.ar    1  UNL1        0.0366
      9 C         139.7571  138.4352  164.5670 C.ar    1  UNL1        0.0031
     10 H         136.6663  136.9102  167.7874 H       1  UNL1        0.2922
     11 C         140.0610  141.3640  162.9183 C.ar    1  UNL1       -0.0003
     12 C         139.0264  142.4322  162.7221 C.ar    1  UNL1       -0.0003
     13 C         138.6509  142.8672  161.3365 C.ar    1  UNL1       -0.0042
     14 C         139.3101  142.2340  160.1472 C.ar    1  UNL1       -0.0211
     15 C         140.3447  141.1658  160.3433 C.ar    1  UNL1       -0.0042
     16 C         140.7202  140.7308  161.7289 C.ar    1  UNL1       -0.0003
     17 C         138.9346  142.6690  158.7616 C.3     1  UNL1        0.0397
     18 C         139.6321  143.7182  157.9474 C.3     1  UNL1        0.0231
     19 C         138.9243  143.8288  156.6296 C.3     1  UNL1        0.0724
     20 N         137.7893  142.8481  156.6292 N.3     1  UNL1       -0.2737
     21 C         137.7957  142.1313  157.9469 C.3     1  UNL1        0.0764
     22 C         136.8184  142.6235  155.5081 C.3     1  UNL1        0.0576
     23 C         136.3629  142.9083  154.1076 C.3     1  UNL1        0.0173
     24 C         135.5924  141.9500  154.9667 C.3     1  UNL1        0.0173
     25 C         142.4101  142.6187  164.2995 C.ar    1  UNL1       -0.0040
     26 C         141.9852  144.0545  164.3869 C.ar    1  UNL1       -0.0003
     27 C         142.7843  145.1168  163.6920 C.ar    1  UNL1       -0.0000
     28 C         144.0083  144.7432  162.9096 C.ar    1  UNL1       -0.0000
     29 C         144.4333  143.3073  162.8222 C.ar    1  UNL1       -0.0000
     30 C         143.6342  142.2451  163.5171 C.ar    1  UNL1       -0.0003
     31 C         141.9865  141.1213  166.3800 C.3     1  UNL1        0.0289
     32 C         142.9474  139.9861  166.5751 C.3     1  UNL1        0.0364
     33 O         144.7781  138.9043  165.0825 O.3     1  UNL1       -0.3820
     34 C         143.3308  139.1197  165.4122 C.3     1  UNL1        0.1375
     35 H         144.8505  138.3237  164.3088 H       1  UNL1        0.2104
@<TRIPOS>BOND
     1    33    34    1
     2    34    32    1
     3    32    31    1
     4    31     1    1
     5     1     2    2
     6     2     3    1
     7     3     4   ar
     8     4     5   ar
     9     5     6   ar
    10     6     7    1
    11     6     8   ar
    12     8     9   ar
    13     2    11    1
    14    11    12   ar
    15    12    13   ar
    16    13    14   ar
    17    14    17    1
    18    17    18    1
    19    18    19    1
    20    19    20    1
    21    20    22    1
    22    22    23    1
    23    23    24    1
    24    20    21    1
    25    14    15   ar
    26    15    16   ar
    27     1    25    1
    28    25    26   ar
    29    26    27   ar
    30    27    28   ar
    31    28    29   ar
    32    29    30   ar
    33     9     3   ar
    34    16    11   ar
    35    30    25   ar
    36    21    17    1
    37    24    22    1
    38    33    35    1
    39     7    10    1
@<TRIPOS>MOLECULE
*****
 35 39 0 0 0
SMALL
GASTEIGER

@<TRIPOS>ATOM
      1 C         140.1481  141.3594  160.9706 C.2     1  UNL1       -0.0221
      2 C         140.6236  141.4103  159.5489 C.2     1  UNL1       -0.0040
      3 C         140.6548  142.7181  158.8148 C.ar    1  UNL1       -0.0001
      4 C         139.5143  143.1032  157.9198 C.ar    1  UNL1        0.0031
      5 C         139.5455  144.4109  157.1858 C.ar    1  UNL1        0.0366
      6 C         140.7171  145.3336  157.3468 C.ar    1  UNL1        0.1337
      7 O         140.7483  146.6414  156.6127 O.3     1  UNL1       -0.5055
      8 C         141.8576  144.9486  158.2418 C.ar    1  UNL1        0.0366
      9 C         141.8264  143.6408  158.9758 C.ar    1  UNL1        0.0031
     10 H         140.0359  146.8819  156.0536 H       1  UNL1        0.2922
     11 C         141.0680  140.1535  158.8612 C.ar    1  UNL1       -0.0003
     12 C         142.5077  139.7365  158.9179 C.ar    1  UNL1       -0.0003
     13 C         142.9522  138.4797  158.2302 C.ar    1  UNL1       -0.0042
     14 C         141.9569  137.6399  157.4858 C.ar    1  UNL1       -0.0211
     15 C         140.5171  138.0569  157.4291 C.ar    1  UNL1       -0.0042
     16 C         140.0727  139.3137  158.1168 C.ar    1  UNL1       -0.0003
     17 C         142.4013  136.3831  156.7981 C.3     1  UNL1        0.0397
     18 C         142.0958  135.9982  155.3809 C.3     1  UNL1        0.0231
     19 C         142.7350  134.6677  155.1138 C.3     1  UNL1        0.0724
     20 N         143.4355  134.2303  156.3660 N.3     1  UNL1       -0.2737
     21 C         143.2293  135.2905  157.4069 C.3     1  UNL1        0.0764
     22 C         144.2068  132.9564  156.5457 C.3     1  UNL1        0.0576
     23 C         144.7278  131.6640  155.9905 C.3     1  UNL1        0.0173
     24 C         145.0217  132.0424  157.4119 C.3     1  UNL1        0.0173
     25 C         140.1169  140.0516  161.7046 C.ar    1  UNL1       -0.0040
     26 C         138.8870  139.1942  161.6576 C.ar    1  UNL1       -0.0003
     27 C         138.8559  137.8865  162.3916 C.ar    1  UNL1       -0.0000
     28 C         140.0547  137.4362  163.1727 C.ar    1  UNL1       -0.0000
     29 C         141.2846  138.2936  163.2198 C.ar    1  UNL1       -0.0000
     30 C         141.3157  139.6013  162.4857 C.ar    1  UNL1       -0.0003
     31 C         139.7036  142.6162  161.6582 C.3     1  UNL1        0.0289
     32 C         138.2409  142.8933  161.8424 C.3     1  UNL1        0.0364
     33 O         136.6004  141.3226  163.1040 O.3     1  UNL1       -0.3820
     34 C         137.5533  142.4810  163.1102 C.3     1  UNL1        0.1375
     35 H         136.2464  141.1904  163.9973 H       1  UNL1        0.2104
@<TRIPOS>BOND
     1    33    34    1
     2    34    32    1
     3    32    31    1
     4    31     1    1
     5     1     2    2
     6     2     3    1
     7     3     4   ar
     8     4     5   ar
     9     5     6   ar
    10     6     7    1
    11     6     8   ar
    12     8     9   ar
    13     2    11    1
    14    11    12   ar
    15    12    13   ar
    16    13    14   ar
    17    14    17    1
    18    17    18    1
    19    18    19    1
    20    19    20    1
    21    20    22    1
    22    22    23    1
    23    23    24    1
    24    20    21    1
    25    14    15   ar
    26    15    16   ar
    27     1    25    1
    28    25    26   ar
    29    26    27   ar
    30    27    28   ar
    31    28    29   ar
    32    29    30   ar
    33     9     3   ar
    34    16    11   ar
    35    30    25   ar
    36    21    17    1
    37    24    22    1
    38    33    35    1
    39     7    10    1
@<TRIPOS>MOLECULE
*****
 35 39 0 0 0
SMALL
GASTEIGER

@<TRIPOS>ATOM
      1 C         142.2276  140.4201  162.4285 C.2     1  UNL1       -0.0221
      2 C         140.7304  140.3305  162.4101 C.2     1  UNL1       -0.0040
      3 C         139.9942  139.8282  163.6167 C.ar    1  UNL1       -0.0001
      4 C         139.6438  138.3741  163.7300 C.ar    1  UNL1        0.0031
      5 C         138.9077  137.8719  164.9366 C.ar    1  UNL1        0.0366
      6 C         138.5220  138.8238  166.0298 C.ar    1  UNL1        0.1337
      7 O         137.7858  138.3215  167.2364 O.3     1  UNL1       -0.5055
      8 C         138.8724  140.2778  165.9165 C.ar    1  UNL1        0.0366
      9 C         139.6085  140.7800  164.7100 C.ar    1  UNL1        0.0031
     10 H         137.5669  137.4132  167.3072 H       1  UNL1        0.2922
     11 C         139.9693  140.7432  161.1852 C.ar    1  UNL1       -0.0003
     12 C         139.5425  142.1708  161.0129 C.ar    1  UNL1       -0.0003
     13 C         138.7814  142.5835  159.7880 C.ar    1  UNL1       -0.0042
     14 C         138.4472  141.5685  158.7353 C.ar    1  UNL1       -0.0211
     15 C         138.8740  140.1408  158.9075 C.ar    1  UNL1       -0.0042
     16 C         139.6351  139.7282  160.1325 C.ar    1  UNL1       -0.0003
     17 C         137.6861  141.9812  157.5104 C.3     1  UNL1        0.0397
     18 C         137.8856  143.2489  156.7338 C.3     1  UNL1        0.0231
     19 C         136.9147  143.2499  155.5904 C.3     1  UNL1        0.0724
     20 N         136.1151  141.9827  155.6604 N.3     1  UNL1       -0.2737
     21 C         136.5918  141.1987  156.8469 C.3     1  UNL1        0.0764
     22 C         135.0293  141.5717  154.7105 C.3     1  UNL1        0.0576
     23 C         133.6061  141.1696  154.4600 C.3     1  UNL1        0.0173
     24 C         134.5719  141.2620  153.3159 C.3     1  UNL1        0.0173
     25 C         142.9638  140.9224  161.2219 C.ar    1  UNL1       -0.0040
     26 C         143.3816  139.9646  160.1457 C.ar    1  UNL1       -0.0003
     27 C         144.1177  140.4669  158.9392 C.ar    1  UNL1       -0.0000
     28 C         144.4360  141.9270  158.8088 C.ar    1  UNL1       -0.0000
     29 C         144.0182  142.8847  159.8850 C.ar    1  UNL1       -0.0000
     30 C         143.2821  142.3824  161.0915 C.ar    1  UNL1       -0.0003
     31 C         142.9887  140.0074  163.6534 C.3     1  UNL1        0.0289
     32 C         144.0052  140.9337  164.2523 C.3     1  UNL1        0.0364
     33 O         146.1646  141.8392  163.1266 O.3     1  UNL1       -0.3820
     34 C         145.4574  140.7747  163.9119 C.3     1  UNL1        0.1375
     35 H         147.0904  141.5819  162.9942 H       1  UNL1        0.2104
@<TRIPOS>BOND
     1    33    34    1
     2    34    32    1
     3    32    31    1
     4    31     1    1
     5     1     2    2
     6     2     3    1
     7     3     4   ar
     8     4     5   ar
     9     5     6   ar
    10     6     7    1
    11     6     8   ar
    12     8     9   ar
    13     2    11    1
    14    11    12   ar
    15    12    13   ar
    16    13    14   ar
    17    14    17    1
    18    17    18    1
    19    18    19    1
    20    19    20    1
    21    20    22    1
    22    22    23    1
    23    23    24    1
    24    20    21    1
    25    14    15   ar
    26    15    16   ar
    27     1    25    1
    28    25    26   ar
    29    26    27   ar
    30    27    28   ar
    31    28    29   ar
    32    29    30   ar
    33     9     3   ar
    34    16    11   ar
    35    30    25   ar
    36    21    17    1
    37    24    22    1
    38    33    35    1
    39     7    10    1
@<TRIPOS>MOLECULE
*****
 35 39 0 0 0
SMALL
GASTEIGER

@<TRIPOS>ATOM
      1 C         142.3804  142.1664  162.0848 C.2     1  UNL1       -0.0221
      2 C         142.4519  140.6682  162.0860 C.2     1  UNL1       -0.0040
      3 C         142.9081  139.9401  163.3155 C.ar    1  UNL1       -0.0001
      4 C         141.8989  139.3605  164.2618 C.ar    1  UNL1        0.0031
      5 C         142.3552  138.6324  165.4913 C.ar    1  UNL1        0.0366
      6 C         143.8208  138.4839  165.7745 C.ar    1  UNL1        0.1337
      7 O         144.2771  137.7558  167.0040 O.3     1  UNL1       -0.5055
      8 C         144.8300  139.0635  164.8282 C.ar    1  UNL1        0.0366
      9 C         144.3737  139.7916  163.5987 C.ar    1  UNL1        0.0031
     10 H         143.6466  137.3937  167.5952 H       1  UNL1        0.2922
     11 C         142.0670  139.8980  160.8577 C.ar    1  UNL1       -0.0003
     12 C         143.1178  139.4913  159.8676 C.ar    1  UNL1       -0.0003
     13 C         142.7330  138.7210  158.6393 C.ar    1  UNL1       -0.0042
     14 C         141.2974  138.3575  158.4012 C.ar    1  UNL1       -0.0211
     15 C         140.2465  138.7642  159.3913 C.ar    1  UNL1       -0.0042
     16 C         140.6313  139.5344  160.6196 C.ar    1  UNL1       -0.0003
     17 C         140.9126  137.5873  157.1729 C.3     1  UNL1        0.0397
     18 C         139.6098  137.6944  156.4371 C.3     1  UNL1        0.0231
     19 C         139.6550  136.7480  155.2742 C.3     1  UNL1        0.0724
     20 N         140.9858  136.0560  155.2912 N.3     1  UNL1       -0.2737
     21 C         141.7630  136.5747  156.4647 C.3     1  UNL1        0.0764
     22 C         141.4567  135.0261  154.3076 C.3     1  UNL1        0.0576
     23 C         141.9000  134.6603  152.9221 C.3     1  UNL1        0.0173
     24 C         141.8289  133.6084  153.9892 C.3     1  UNL1        0.0173
     25 C         141.9241  142.8946  160.8552 C.ar    1  UNL1       -0.0040
     26 C         142.9048  143.2161  159.7667 C.ar    1  UNL1       -0.0003
     27 C         142.4485  143.9442  158.5373 C.ar    1  UNL1       -0.0000
     28 C         141.0115  144.3507  158.3963 C.ar    1  UNL1       -0.0000
     29 C         140.0308  144.0292  159.4848 C.ar    1  UNL1       -0.0000
     30 C         140.4872  143.3011  160.7143 C.ar    1  UNL1       -0.0003
     31 C         142.7652  142.9367  163.3130 C.3     1  UNL1        0.0289
     32 C         143.0717  144.4018  163.2142 C.3     1  UNL1        0.0364
     33 O         141.0977  146.0643  162.9155 O.3     1  UNL1       -0.3820
     34 C         142.1213  145.4075  163.7933 C.3     1  UNL1        0.1375
     35 H         140.5683  146.6827  163.4429 H       1  UNL1        0.2104
@<TRIPOS>BOND
     1    33    34    1
     2    34    32    1
     3    32    31    1
     4    31     1    1
     5     1     2    2
     6     2     3    1
     7     3     4   ar
     8     4     5   ar
     9     5     6   ar
    10     6     7    1
    11     6     8   ar
    12     8     9   ar
    13     2    11    1
    14    11    12   ar
    15    12    13   ar
    16    13    14   ar
    17    14    17    1
    18    17    18    1
    19    18    19    1
    20    19    20    1
    21    20    22    1
    22    22    23    1
    23    23    24    1
    24    20    21    1
    25    14    15   ar
    26    15    16   ar
    27     1    25    1
    28    25    26   ar
    29    26    27   ar
    30    27    28   ar
    31    28    29   ar
    32    29    30   ar
    33     9     3   ar
    34    16    11   ar
    35    30    25   ar
    36    21    17    1
    37    24    22    1
    38    33    35    1
    39     7    10    1
@<TRIPOS>MOLECULE
*****
 35 39 0 0 0
SMALL
GASTEIGER

@<TRIPOS>ATOM
      1 C         141.1931  141.7749  165.4895 C.2     1  UNL1       -0.0221
      2 C         141.7564  140.6925  164.6171 C.2     1  UNL1       -0.0040
      3 C         142.8598  139.8146  165.1290 C.ar    1  UNL1       -0.0001
      4 C         144.2401  139.9327  164.5541 C.ar    1  UNL1        0.0031
      5 C         145.3434  139.0549  165.0660 C.ar    1  UNL1        0.0366
      6 C         145.0663  138.0590  166.1529 C.ar    1  UNL1        0.1337
      7 O         146.1697  137.1811  166.6649 O.3     1  UNL1       -0.5055
      8 C         143.6860  137.9409  166.7279 C.ar    1  UNL1        0.0366
      9 C         142.5827  138.8187  166.2159 C.ar    1  UNL1        0.0031
     10 H         147.0320  137.2549  166.3057 H       1  UNL1        0.2922
     11 C         141.2164  140.4879  163.2327 C.ar    1  UNL1       -0.0003
     12 C         140.1729  139.4400  162.9820 C.ar    1  UNL1       -0.0003
     13 C         139.6329  139.2354  161.5976 C.ar    1  UNL1       -0.0042
     14 C         140.1363  140.0788  160.4639 C.ar    1  UNL1       -0.0211
     15 C         141.1799  141.1268  160.7146 C.ar    1  UNL1       -0.0042
     16 C         141.7199  141.3313  162.0990 C.ar    1  UNL1       -0.0003
     17 C         139.5963  139.8742  159.0795 C.3     1  UNL1        0.0397
     18 C         140.1527  138.9414  158.0450 C.3     1  UNL1        0.0231
     19 C         139.3054  139.0572  156.8127 C.3     1  UNL1        0.0724
     20 N         138.2252  140.0616  157.0856 N.3     1  UNL1       -0.2737
     21 C         138.4051  140.5665  158.4866 C.3     1  UNL1        0.0764
     22 C         137.1535  140.4865  156.1260 C.3     1  UNL1        0.0576
     23 C         135.9827  141.3623  155.7909 C.3     1  UNL1        0.0173
     24 C         136.4678  140.3466  154.7993 C.3     1  UNL1        0.0173
     25 C         140.0897  142.6527  164.9775 C.ar    1  UNL1       -0.0040
     26 C         138.6772  142.1483  164.9595 C.ar    1  UNL1       -0.0003
     27 C         137.5739  143.0262  164.4475 C.ar    1  UNL1       -0.0000
     28 C         137.8832  144.4084  163.9537 C.ar    1  UNL1       -0.0000
     29 C         139.2957  144.9127  163.9717 C.ar    1  UNL1       -0.0000
     30 C         140.3990  144.0349  164.4837 C.ar    1  UNL1       -0.0003
     31 C         141.7331  141.9794  166.8739 C.3     1  UNL1        0.0289
     32 C         140.8309  141.8213  168.0618 C.3     1  UNL1        0.0364
     33 O         140.0932  143.9730  169.3172 O.3     1  UNL1       -0.3820
     34 C         140.9603  142.7521  169.2310 C.3     1  UNL1        0.1375
     35 H         140.3027  144.4616  170.1286 H       1  UNL1        0.2104
@<TRIPOS>BOND
     1    33    34    1
     2    34    32    1
     3    32    31    1
     4    31     1    1
     5     1     2    2
     6     2     3    1
     7     3     4   ar
     8     4     5   ar
     9     5     6   ar
    10     6     7    1
    11     6     8   ar
    12     8     9   ar
    13     2    11    1
    14    11    12   ar
    15    12    13   ar
    16    13    14   ar
    17    14    17    1
    18    17    18    1
    19    18    19    1
    20    19    20    1
    21    20    22    1
    22    22    23    1
    23    23    24    1
    24    20    21    1
    25    14    15   ar
    26    15    16   ar
    27     1    25    1
    28    25    26   ar
    29    26    27   ar
    30    27    28   ar
    31    28    29   ar
    32    29    30   ar
    33     9     3   ar
    34    16    11   ar
    35    30    25   ar
    36    21    17    1
    37    24    22    1
    38    33    35    1
    39     7    10    1
