@<TRIPOS>MOLECULE
*****
 36 39 0 0 0
SMALL
GASTEIGER

@<TRIPOS>ATOM
      1 C         140.7990  143.4980  161.8565 C.ar    1  UNL1        0.0479
      2 C         141.2295  144.5234  162.8631 C.ar    1  UNL1        0.0147
      3 C         141.4437  144.1262  164.2937 C.ar    1  UNL1        0.0058
      4 C         141.2274  142.7037  164.7176 C.ar    1  UNL1        0.0538
      5 C         140.7968  141.6783  163.7109 C.ar    1  UNL1        0.0058
      6 C         140.5826  142.0755  162.2804 C.ar    1  UNL1        0.0147
      7 C         139.9423  145.0868  156.1344 C.2     1  UNL1        0.2493
      8 O         139.5778  144.0491  155.1145 O.2     1  UNL1       -0.2699
      9 N         140.1565  144.6896  157.5650 N.am    1  UNL1       -0.2726
     10 C         140.5210  145.7273  158.5849 C.3     1  UNL1        0.1151
     11 C         140.7351  145.3301  160.0155 C.3     1  UNL1        0.1123
     12 N         140.5848  143.8952  160.4261 N.pl3   1  UNL1       -0.3041
     13 C         140.2203  142.8575  159.4060 C.3     1  UNL1        0.1123
     14 C         140.0062  143.2547  157.9755 C.3     1  UNL1        0.1151
     15 C         138.8777  147.3858  155.5592 C.2     1  UNL1        0.0047
     16 C         140.0926  146.5217  155.7239 C.2     1  UNL1        0.0579
     17 C         139.4790  153.1253  153.9170 C.3     1  UNL1        0.0310
     18 C         139.3287  151.6905  154.3276 C.ar    1  UNL1       -0.0218
     19 C         139.9463  150.6043  153.4977 C.ar    1  UNL1       -0.0043
     20 C         139.7960  149.1694  153.9083 C.ar    1  UNL1       -0.0003
     21 C         139.0280  148.8207  155.1486 C.ar    1  UNL1        0.0001
     22 C         138.4104  149.9069  155.9785 C.ar    1  UNL1       -0.0003
     23 C         138.5607  151.3418  155.5679 C.ar    1  UNL1       -0.0043
     24 C         141.4415  142.3065  166.1481 C.2     1  UNL1        0.2495
     25 O         142.8275  142.2859  166.7213 O.2     1  UNL1       -0.2698
     26 N         140.2697  141.9298  167.0053 N.am    1  UNL1       -0.2794
     27 H         139.3600  141.9433  166.6291 H       1  UNL1        0.1552
     28 C         140.4838  141.5326  168.4359 C.ar    1  UNL1        0.0636
     29 C         140.7822  140.1037  168.7809 C.ar    1  UNL1        0.0159
     30 C         140.9963  139.7064  170.2114 C.ar    1  UNL1        0.0014
     31 C         140.9120  140.7382  171.2969 C.ar    1  UNL1        0.0013
     32 C         140.6137  142.1672  170.9519 C.ar    1  UNL1        0.0153
     33 C         140.3996  142.5644  169.5214 C.ar    1  UNL1        0.0552
     34 N         140.1012  143.9934  169.1763 N.pl3   1  UNL1       -0.3560
     35 H         140.0459  144.6706  169.8888 H       1  UNL1        0.1424
     36 H         139.9607  144.2541  168.2374 H       1  UNL1        0.1424
@<TRIPOS>BOND
     1    17    18    1
     2    18    19   ar
     3    19    20   ar
     4    20    21   ar
     5    21    15    1
     6    15    16    2
     7    16     7    1
     8     7     8    2
     9     7     9   am
    10     9    10    1
    11    10    11    1
    12    11    12    1
    13    12     1    1
    14     1     2   ar
    15     2     3   ar
    16     3     4   ar
    17     4    24    1
    18    24    25    2
    19    24    26   am
    20    26    28    1
    21    28    29   ar
    22    29    30   ar
    23    30    31   ar
    24    31    32   ar
    25    32    33   ar
    26    33    34    1
    27     4     5   ar
    28     5     6   ar
    29    12    13    1
    30    13    14    1
    31    21    22   ar
    32    22    23   ar
    33    23    18   ar
    34    14     9    1
    35     6     1   ar
    36    33    28   ar
    37    26    27    1
    38    34    35    1
    39    34    36    1
@<TRIPOS>MOLECULE
*****
 36 39 0 0 0
SMALL
GASTEIGER

@<TRIPOS>ATOM
      1 C         143.0059  140.3000  159.3359 C.ar    1  UNL1        0.0479
      2 C         143.0159  139.4861  158.0760 C.ar    1  UNL1        0.0147
      3 C         143.9206  139.8695  156.9425 C.ar    1  UNL1        0.0058
      4 C         144.8153  141.0668  157.0691 C.ar    1  UNL1        0.0538
      5 C         144.8053  141.8807  158.3292 C.ar    1  UNL1        0.0058
      6 C         143.9006  141.4973  159.4625 C.ar    1  UNL1        0.0147
      7 C         139.3871  138.7662  163.8693 C.2     1  UNL1        0.2493
      8 O         138.6131  137.4827  163.8098 O.2     1  UNL1       -0.2699
      9 N         140.2918  139.1497  162.7359 N.am    1  UNL1       -0.2726
     10 C         141.0659  140.4331  162.7955 C.3     1  UNL1        0.1151
     11 C         141.9706  140.8166  161.6621 C.3     1  UNL1        0.1123
     12 N         142.1013  139.9166  160.4692 N.pl3   1  UNL1       -0.3041
     13 C         141.3272  138.6330  160.4098 C.3     1  UNL1        0.1123
     14 C         140.4225  138.2496  161.5431 C.3     1  UNL1        0.1151
     15 C         140.2270  139.5493  166.1998 C.2     1  UNL1        0.0047
     16 C         139.2565  139.6662  165.0622 C.2     1  UNL1        0.0579
     17 C         139.7045  143.1494  170.9712 C.3     1  UNL1        0.0310
     18 C         139.8351  142.2494  169.7783 C.ar    1  UNL1       -0.0218
     19 C         140.5030  142.7488  168.5315 C.ar    1  UNL1       -0.0043
     20 C         140.6336  141.8488  167.3387 C.ar    1  UNL1       -0.0003
     21 C         140.0964  140.4493  167.3926 C.ar    1  UNL1        0.0001
     22 C         139.4285  139.9500  168.6394 C.ar    1  UNL1       -0.0003
     23 C         139.2979  140.8500  169.8322 C.ar    1  UNL1       -0.0043
     24 C         145.7200  141.4502  155.9358 C.2     1  UNL1        0.2495
     25 O         145.3396  141.1115  154.5249 O.2     1  UNL1       -0.2698
     26 N         147.0051  142.1723  156.2134 N.am    1  UNL1       -0.2794
     27 H         147.2548  142.3946  157.1394 H       1  UNL1        0.1552
     28 C         147.9099  142.5558  155.0800 C.ar    1  UNL1        0.0636
     29 C         149.2060  141.8288  154.8760 C.ar    1  UNL1        0.0159
     30 C         150.1107  142.2122  153.7427 C.ar    1  UNL1        0.0014
     31 C         149.7193  143.3227  152.8133 C.ar    1  UNL1        0.0013
     32 C         148.4232  144.0497  153.0173 C.ar    1  UNL1        0.0153
     33 C         147.5185  143.6662  154.1506 C.ar    1  UNL1        0.0552
     34 N         146.2223  144.3932  154.3546 N.pl3   1  UNL1       -0.3560
     35 H         145.9654  145.1220  153.7447 H       1  UNL1        0.1424
     36 H         145.6285  144.1415  155.0985 H       1  UNL1        0.1424
@<TRIPOS>BOND
     1    17    18    1
     2    18    19   ar
     3    19    20   ar
     4    20    21   ar
     5    21    15    1
     6    15    16    2
     7    16     7    1
     8     7     8    2
     9     7     9   am
    10     9    10    1
    11    10    11    1
    12    11    12    1
    13    12     1    1
    14     1     2   ar
    15     2     3   ar
    16     3     4   ar
    17     4    24    1
    18    24    25    2
    19    24    26   am
    20    26    28    1
    21    28    29   ar
    22    29    30   ar
    23    30    31   ar
    24    31    32   ar
    25    32    33   ar
    26    33    34    1
    27     4     5   ar
    28     5     6   ar
    29    12    13    1
    30    13    14    1
    31    21    22   ar
    32    22    23   ar
    33    23    18   ar
    34    14     9    1
    35     6     1   ar
    36    33    28   ar
    37    26    27    1
    38    34    35    1
    39    34    36    1
@<TRIPOS>MOLECULE
*****
 36 39 0 0 0
SMALL
GASTEIGER

@<TRIPOS>ATOM
      1 C         140.0507  143.0395  158.8270 C.ar    1  UNL1        0.0479
      2 C         140.5087  144.4419  159.0975 C.ar    1  UNL1        0.0147
      3 C         140.2587  145.5209  158.0858 C.ar    1  UNL1        0.0058
      4 C         139.5507  145.1973  156.8037 C.ar    1  UNL1        0.0538
      5 C         139.0927  143.7947  156.5332 C.ar    1  UNL1        0.0058
      6 C         139.3427  142.7159  157.5448 C.ar    1  UNL1        0.0147
      7 C         141.0506  138.7238  162.8737 C.2     1  UNL1        0.2493
      8 O         140.9797  137.2822  162.4658 O.2     1  UNL1       -0.2699
      9 N         140.8006  139.8028  161.8621 N.am    1  UNL1       -0.2726
     10 C         140.8715  141.2445  162.2700 C.3     1  UNL1        0.1151
     11 C         140.6215  142.3234  161.2583 C.3     1  UNL1        0.1123
     12 N         140.3006  141.9606  159.8387 N.pl3   1  UNL1       -0.3041
     13 C         140.2297  140.5188  159.4307 C.3     1  UNL1        0.1123
     14 C         140.4797  139.4400  160.4424 C.3     1  UNL1        0.1151
     15 C         140.2652  139.2627  165.2909 C.2     1  UNL1        0.0047
     16 C         141.3715  139.0867  164.2934 C.2     1  UNL1        0.0579
     17 C         141.5487  140.7140  170.9695 C.3     1  UNL1        0.0310
     18 C         141.2278  140.3512  169.5498 C.ar    1  UNL1       -0.0218
     19 C         139.7993  140.2837  169.0975 C.ar    1  UNL1       -0.0043
     20 C         139.4784  139.9209  167.6779 C.ar    1  UNL1       -0.0003
     21 C         140.5861  139.6255  166.7106 C.ar    1  UNL1        0.0001
     22 C         142.0146  139.6930  167.1629 C.ar    1  UNL1       -0.0003
     23 C         142.3355  140.0558  168.5825 C.ar    1  UNL1       -0.0043
     24 C         139.3008  146.2761  155.7920 C.2     1  UNL1        0.2495
     25 O         138.0242  146.2846  155.0044 O.2     1  UNL1       -0.2698
     26 N         140.3274  147.3465  155.5679 N.am    1  UNL1       -0.2794
     27 H         141.1652  147.3409  156.0848 H       1  UNL1        0.1552
     28 C         140.0774  148.4255  154.5561 C.ar    1  UNL1        0.0636
     29 C         140.5178  148.2373  153.1347 C.ar    1  UNL1        0.0159
     30 C         140.2678  149.3162  152.1229 C.ar    1  UNL1        0.0014
     31 C         139.5775  150.5833  152.5328 C.ar    1  UNL1        0.0013
     32 C         139.1372  150.7715  153.9544 C.ar    1  UNL1        0.0153
     33 C         139.3872  149.6926  154.9660 C.ar    1  UNL1        0.0552
     34 N         138.9468  149.8807  156.3876 N.pl3   1  UNL1       -0.3560
     35 H         138.4938  150.7123  156.6566 H       1  UNL1        0.1424
     36 H         139.1109  149.1726  157.0515 H       1  UNL1        0.1424
@<TRIPOS>BOND
     1    17    18    1
     2    18    19   ar
     3    19    20   ar
     4    20    21   ar
     5    21    15    1
     6    15    16    2
     7    16     7    1
     8     7     8    2
     9     7     9   am
    10     9    10    1
    11    10    11    1
    12    11    12    1
    13    12     1    1
    14     1     2   ar
    15     2     3   ar
    16     3     4   ar
    17     4    24    1
    18    24    25    2
    19    24    26   am
    20    26    28    1
    21    28    29   ar
    22    29    30   ar
    23    30    31   ar
    24    31    32   ar
    25    32    33   ar
    26    33    34    1
    27     4     5   ar
    28     5     6   ar
    29    12    13    1
    30    13    14    1
    31    21    22   ar
    32    22    23   ar
    33    23    18   ar
    34    14     9    1
    35     6     1   ar
    36    33    28   ar
    37    26    27    1
    38    34    35    1
    39    34    36    1
@<TRIPOS>MOLECULE
*****
 36 39 0 0 0
SMALL
GASTEIGER

@<TRIPOS>ATOM
      1 C         140.7722  139.1609  159.2162 C.ar    1  UNL1        0.0479
      2 C         142.1753  138.6313  159.1892 C.ar    1  UNL1        0.0147
      3 C         142.5898  137.6596  158.1242 C.ar    1  UNL1        0.0058
      4 C         141.6012  137.2177  157.0863 C.ar    1  UNL1        0.0538
      5 C         140.1980  137.7474  157.1134 C.ar    1  UNL1        0.0058
      6 C         139.7835  138.7189  158.1783 C.ar    1  UNL1        0.0147
      7 C         139.1142  143.0474  163.4761 C.2     1  UNL1        0.2493
      8 O         137.8422  143.8279  163.3253 O.2     1  UNL1       -0.2699
      9 N         139.5287  142.0758  162.4111 N.am    1  UNL1       -0.2726
     10 C         140.8007  141.2953  162.5620 C.3     1  UNL1        0.1151
     11 C         141.2152  140.3236  161.4970 C.3     1  UNL1        0.1123
     12 N         140.3577  140.1325  160.2812 N.pl3   1  UNL1       -0.3041
     13 C         139.0856  140.9131  160.1304 C.3     1  UNL1        0.1123
     14 C         138.6712  141.8847  161.1953 C.3     1  UNL1        0.1151
     15 C         139.8437  142.3001  165.8550 C.2     1  UNL1        0.0047
     16 C         139.9717  143.2385  164.6919 C.2     1  UNL1        0.0579
     17 C         143.2738  143.0645  170.7182 C.3     1  UNL1        0.0310
     18 C         142.4163  142.8734  169.5024 C.ar    1  UNL1       -0.0218
     19 C         142.9910  142.2371  168.2717 C.ar    1  UNL1       -0.0043
     20 C         142.1335  142.0460  167.0559 C.ar    1  UNL1       -0.0003
     21 C         140.7012  142.4912  167.0708 C.ar    1  UNL1        0.0001
     22 C         140.1264  143.1275  168.3015 C.ar    1  UNL1       -0.0003
     23 C         140.9840  143.3186  169.5173 C.ar    1  UNL1       -0.0043
     24 C         142.0156  136.2461  156.0213 C.2     1  UNL1        0.2495
     25 O         143.3217  136.4288  155.3066 O.2     1  UNL1       -0.2698
     26 N         141.1241  135.0918  155.6712 N.am    1  UNL1       -0.2794
     27 H         140.2669  134.9719  156.1403 H       1  UNL1        0.1552
     28 C         141.5385  134.1201  154.6061 C.ar    1  UNL1        0.0636
     29 C         141.2597  134.4240  153.1640 C.ar    1  UNL1        0.0159
     30 C         141.6741  133.4523  152.0990 C.ar    1  UNL1        0.0014
     31 C         142.3674  132.1768  152.4762 C.ar    1  UNL1        0.0013
     32 C         142.6462  131.8729  153.9185 C.ar    1  UNL1        0.0153
     33 C         142.2318  132.8446  154.9834 C.ar    1  UNL1        0.0552
     34 N         142.5106  132.5407  156.4256 N.pl3   1  UNL1       -0.3560
     35 H         142.9657  131.7035  156.6732 H       1  UNL1        0.1424
     36 H         142.2386  133.1784  157.1246 H       1  UNL1        0.1424
@<TRIPOS>BOND
     1    17    18    1
     2    18    19   ar
     3    19    20   ar
     4    20    21   ar
     5    21    15    1
     6    15    16    2
     7    16     7    1
     8     7     8    2
     9     7     9   am
    10     9    10    1
    11    10    11    1
    12    11    12    1
    13    12     1    1
    14     1     2   ar
    15     2     3   ar
    16     3     4   ar
    17     4    24    1
    18    24    25    2
    19    24    26   am
    20    26    28    1
    21    28    29   ar
    22    29    30   ar
    23    30    31   ar
    24    31    32   ar
    25    32    33   ar
    26    33    34    1
    27     4     5   ar
    28     5     6   ar
    29    12    13    1
    30    13    14    1
    31    21    22   ar
    32    22    23   ar
    33    23    18   ar
    34    14     9    1
    35     6     1   ar
    36    33    28   ar
    37    26    27    1
    38    34    35    1
    39    34    36    1
@<TRIPOS>MOLECULE
*****
 36 39 0 0 0
SMALL
GASTEIGER

@<TRIPOS>ATOM
      1 C         140.3927  143.5149  161.0200 C.ar    1  UNL1        0.0479
      2 C         141.2832  144.2943  161.9417 C.ar    1  UNL1        0.0147
      3 C         141.4927  143.8299  163.3525 C.ar    1  UNL1        0.0058
      4 C         140.8118  142.5861  163.8416 C.ar    1  UNL1        0.0538
      5 C         139.9212  141.8067  162.9199 C.ar    1  UNL1        0.0058
      6 C         139.7117  142.2711  161.5091 C.ar    1  UNL1        0.0147
      7 C         139.5547  145.3726  155.3766 C.2     1  UNL1        0.2493
      8 O         139.0664  144.4101  154.3349 O.2     1  UNL1       -0.2699
      9 N         139.7642  144.9082  156.7875 N.am    1  UNL1       -0.2726
     10 C         140.2524  145.8707  157.8292 C.3     1  UNL1        0.1151
     11 C         140.4620  145.4063  159.2401 C.3     1  UNL1        0.1123
     12 N         140.1832  143.9794  159.6092 N.pl3   1  UNL1       -0.3041
     13 C         139.6949  143.0169  158.5674 C.3     1  UNL1        0.1123
     14 C         139.4854  143.4813  157.1566 C.3     1  UNL1        0.1151
     15 C         138.8310  147.8674  155.3311 C.2     1  UNL1        0.0047
     16 C         139.8334  146.7995  155.0076 C.2     1  UNL1        0.0579
     17 C         139.9461  153.5751  153.8548 C.3     1  UNL1        0.0310
     18 C         139.6673  152.1482  154.2239 C.ar    1  UNL1       -0.0218
     19 C         138.7124  151.8343  155.3372 C.ar    1  UNL1       -0.0043
     20 C         138.4336  150.4074  155.7063 C.ar    1  UNL1       -0.0003
     21 C         139.1098  149.2944  154.9620 C.ar    1  UNL1        0.0001
     22 C         140.0647  149.6082  153.8487 C.ar    1  UNL1       -0.0003
     23 C         140.3435  151.0352  153.4796 C.ar    1  UNL1       -0.0043
     24 C         141.0213  142.1217  165.2524 C.2     1  UNL1        0.2495
     25 O         139.8397  141.8363  166.1314 O.2     1  UNL1       -0.2698
     26 N         142.4123  141.9426  165.7843 N.am    1  UNL1       -0.2794
     27 H         143.1878  142.1299  165.2074 H       1  UNL1        0.1552
     28 C         142.6219  141.4781  167.1951 C.ar    1  UNL1        0.0636
     29 C         143.1615  142.4263  168.2245 C.ar    1  UNL1        0.0159
     30 C         143.3711  141.9619  169.6354 C.ar    1  UNL1        0.0014
     31 C         143.0409  140.5492  170.0168 C.ar    1  UNL1        0.0013
     32 C         142.5013  139.6010  168.9873 C.ar    1  UNL1        0.0153
     33 C         142.2917  140.0655  167.5765 C.ar    1  UNL1        0.0552
     34 N         141.7521  139.1173  166.5470 N.pl3   1  UNL1       -0.3560
     35 H         141.5354  138.1901  166.7973 H       1  UNL1        0.1424
     36 H         141.6145  139.4222  165.6211 H       1  UNL1        0.1424
@<TRIPOS>BOND
     1    17    18    1
     2    18    19   ar
     3    19    20   ar
     4    20    21   ar
     5    21    15    1
     6    15    16    2
     7    16     7    1
     8     7     8    2
     9     7     9   am
    10     9    10    1
    11    10    11    1
    12    11    12    1
    13    12     1    1
    14     1     2   ar
    15     2     3   ar
    16     3     4   ar
    17     4    24    1
    18    24    25    2
    19    24    26   am
    20    26    28    1
    21    28    29   ar
    22    29    30   ar
    23    30    31   ar
    24    31    32   ar
    25    32    33   ar
    26    33    34    1
    27     4     5   ar
    28     5     6   ar
    29    12    13    1
    30    13    14    1
    31    21    22   ar
    32    22    23   ar
    33    23    18   ar
    34    14     9    1
    35     6     1   ar
    36    33    28   ar
    37    26    27    1
    38    34    35    1
    39    34    36    1
@<TRIPOS>MOLECULE
*****
 36 39 0 0 0
SMALL
GASTEIGER

@<TRIPOS>ATOM
      1 C         142.8868  139.9340  161.6811 C.ar    1  UNL1        0.0479
      2 C         141.6239  140.5786  162.1703 C.ar    1  UNL1        0.0147
      3 C         141.5422  141.0977  163.5753 C.ar    1  UNL1        0.0058
      4 C         142.7236  140.9720  164.4911 C.ar    1  UNL1        0.0538
      5 C         143.9865  140.3273  164.0018 C.ar    1  UNL1        0.0058
      6 C         144.0681  139.8083  162.5969 C.ar    1  UNL1        0.0147
      7 C         143.2133  137.8580  156.0611 C.2     1  UNL1        0.2493
      8 O         143.7489  138.7343  154.9679 O.2     1  UNL1       -0.2699
      9 N         143.1317  138.3770  157.4662 N.am    1  UNL1       -0.2726
     10 C         142.5961  137.5007  158.5594 C.3     1  UNL1        0.1151
     11 C         142.5144  138.0197  159.9645 C.3     1  UNL1        0.1123
     12 N         142.9684  139.4150  160.2762 N.pl3   1  UNL1       -0.3041
     13 C         143.5040  140.2912  159.1828 C.3     1  UNL1        0.1123
     14 C         143.5856  139.7722  157.7779 C.3     1  UNL1        0.1151
     15 C         143.6597  135.2987  156.0396 C.2     1  UNL1        0.0047
     16 C         142.7593  136.4627  155.7494 C.2     1  UNL1        0.0579
     17 C         141.8437  129.7176  154.7928 C.3     1  UNL1        0.0310
     18 C         142.2977  131.1129  155.1045 C.ar    1  UNL1       -0.0218
     19 C         141.3285  132.2542  155.0164 C.ar    1  UNL1       -0.0043
     20 C         141.7825  133.6495  155.3280 C.ar    1  UNL1       -0.0003
     21 C         143.2057  133.9034  155.7279 C.ar    1  UNL1        0.0001
     22 C         144.1749  132.7620  155.8160 C.ar    1  UNL1       -0.0003
     23 C         143.7209  131.3668  155.5043 C.ar    1  UNL1       -0.0043
     24 C         142.6419  141.4910  165.8960 C.2     1  UNL1        0.2495
     25 O         143.6177  142.5266  166.3709 O.2     1  UNL1       -0.2698
     26 N         141.5846  140.9744  166.8261 N.am    1  UNL1       -0.2794
     27 H         140.9442  140.2947  166.5144 H       1  UNL1        0.1552
     28 C         141.5030  141.4934  168.2312 C.ar    1  UNL1        0.0636
     29 C         140.7676  142.7688  168.5180 C.ar    1  UNL1        0.0159
     30 C         140.6859  143.2878  169.9230 C.ar    1  UNL1        0.0014
     31 C         141.3397  142.5313  171.0412 C.ar    1  UNL1        0.0013
     32 C         142.0751  141.2558  170.7543 C.ar    1  UNL1        0.0153
     33 C         142.1568  140.7368  169.3493 C.ar    1  UNL1        0.0552
     34 N         142.8922  139.4613  169.0624 N.pl3   1  UNL1       -0.3560
     35 H         143.3213  138.9648  169.7962 H       1  UNL1        0.1424
     36 H         142.9458  139.1207  168.1402 H       1  UNL1        0.1424
@<TRIPOS>BOND
     1    17    18    1
     2    18    19   ar
     3    19    20   ar
     4    20    21   ar
     5    21    15    1
     6    15    16    2
     7    16     7    1
     8     7     8    2
     9     7     9   am
    10     9    10    1
    11    10    11    1
    12    11    12    1
    13    12     1    1
    14     1     2   ar
    15     2     3   ar
    16     3     4   ar
    17     4    24    1
    18    24    25    2
    19    24    26   am
    20    26    28    1
    21    28    29   ar
    22    29    30   ar
    23    30    31   ar
    24    31    32   ar
    25    32    33   ar
    26    33    34    1
    27     4     5   ar
    28     5     6   ar
    29    12    13    1
    30    13    14    1
    31    21    22   ar
    32    22    23   ar
    33    23    18   ar
    34    14     9    1
    35     6     1   ar
    36    33    28   ar
    37    26    27    1
    38    34    35    1
    39    34    36    1
@<TRIPOS>MOLECULE
*****
 36 39 0 0 0
SMALL
GASTEIGER

@<TRIPOS>ATOM
      1 C         142.8943  139.3555  161.9367 C.ar    1  UNL1        0.0479
      2 C         143.0049  140.7008  162.5908 C.ar    1  UNL1        0.0147
      3 C         142.8708  140.8241  164.0797 C.ar    1  UNL1        0.0058
      4 C         142.6260  139.6021  164.9145 C.ar    1  UNL1        0.0538
      5 C         142.5153  138.2568  164.2603 C.ar    1  UNL1        0.0058
      6 C         142.6495  138.1335  162.7714 C.ar    1  UNL1        0.0147
      7 C         143.4309  138.8624  155.9810 C.2     1  UNL1        0.2493
      8 O         144.1077  139.9471  155.1967 O.2     1  UNL1       -0.2699
      9 N         143.2967  138.9856  157.4700 N.am    1  UNL1       -0.2726
     10 C         142.6200  137.9009  158.2544 C.3     1  UNL1        0.1151
     11 C         142.4858  138.0242  159.7433 C.3     1  UNL1        0.1123
     12 N         143.0284  139.2322  160.4478 N.pl3   1  UNL1       -0.3041
     13 C         143.7052  140.3169  159.6633 C.3     1  UNL1        0.1123
     14 C         143.8394  140.1936  158.1745 C.3     1  UNL1        0.1151
     15 C         143.5867  136.3333  155.4069 C.2     1  UNL1        0.0047
     16 C         142.8883  137.6544  155.2766 C.2     1  UNL1        0.0579
     17 C         141.4162  131.5013  152.5891 C.3     1  UNL1        0.0310
     18 C         141.9588  132.7093  153.2935 C.ar    1  UNL1       -0.0218
     19 C         141.6649  134.0815  152.7638 C.ar    1  UNL1       -0.0043
     20 C         142.2076  135.2895  153.4683 C.ar    1  UNL1       -0.0003
     21 C         143.0441  135.1253  154.7024 C.ar    1  UNL1        0.0001
     22 C         143.3380  133.7531  155.2322 C.ar    1  UNL1       -0.0003
     23 C         142.7953  132.5451  154.5277 C.ar    1  UNL1       -0.0043
     24 C         142.4918  139.7254  166.4033 C.2     1  UNL1        0.2495
     25 O         143.2907  138.8315  167.3049 O.2     1  UNL1       -0.2698
     26 N         141.5589  140.7426  166.9906 N.am    1  UNL1       -0.2794
     27 H         141.0346  141.3293  166.3988 H       1  UNL1        0.1552
     28 C         141.4247  140.8659  168.4795 C.ar    1  UNL1        0.0636
     29 C         140.3708  140.0831  169.2050 C.ar    1  UNL1        0.0159
     30 C         140.2366  140.2064  170.6939 C.ar    1  UNL1        0.0014
     31 C         141.1564  141.1126  171.4573 C.ar    1  UNL1        0.0013
     32 C         142.2104  141.8955  170.7318 C.ar    1  UNL1        0.0153
     33 C         142.3445  141.7721  169.2429 C.ar    1  UNL1        0.0552
     34 N         143.3985  142.5550  168.5174 N.pl3   1  UNL1       -0.3560
     35 H         144.0022  143.1498  169.0184 H       1  UNL1        0.1424
     36 H         143.4865  142.4740  167.5402 H       1  UNL1        0.1424
@<TRIPOS>BOND
     1    17    18    1
     2    18    19   ar
     3    19    20   ar
     4    20    21   ar
     5    21    15    1
     6    15    16    2
     7    16     7    1
     8     7     8    2
     9     7     9   am
    10     9    10    1
    11    10    11    1
    12    11    12    1
    13    12     1    1
    14     1     2   ar
    15     2     3   ar
    16     3     4   ar
    17     4    24    1
    18    24    25    2
    19    24    26   am
    20    26    28    1
    21    28    29   ar
    22    29    30   ar
    23    30    31   ar
    24    31    32   ar
    25    32    33   ar
    26    33    34    1
    27     4     5   ar
    28     5     6   ar
    29    12    13    1
    30    13    14    1
    31    21    22   ar
    32    22    23   ar
    33    23    18   ar
    34    14     9    1
    35     6     1   ar
    36    33    28   ar
    37    26    27    1
    38    34    35    1
    39    34    36    1
@<TRIPOS>MOLECULE
*****
 36 39 0 0 0
SMALL
GASTEIGER

@<TRIPOS>ATOM
      1 C         139.7360  145.3859  155.9355 C.ar    1  UNL1        0.0479
      2 C         138.9927  146.5690  156.4812 C.ar    1  UNL1        0.0147
      3 C         139.0969  147.9004  155.7982 C.ar    1  UNL1        0.0058
      4 C         139.9444  148.0487  154.5695 C.ar    1  UNL1        0.0538
      5 C         140.6877  146.8655  154.0238 C.ar    1  UNL1        0.0058
      6 C         140.5835  145.5342  154.7068 C.ar    1  UNL1        0.0147
      7 C         139.3190  140.0602  158.6676 C.2     1  UNL1        0.2493
      8 O         139.1480  138.8115  157.8544 O.2     1  UNL1       -0.2699
      9 N         139.4233  141.3917  157.9846 N.am    1  UNL1       -0.2726
     10 C         139.5943  142.6404  158.7978 C.3     1  UNL1        0.1151
     11 C         139.6985  143.9719  158.1148 C.3     1  UNL1        0.1123
     12 N         139.6317  144.0545  156.6185 N.pl3   1  UNL1       -0.3041
     13 C         139.4607  142.8057  155.8053 C.3     1  UNL1        0.1123
     14 C         139.3564  141.4743  156.4883 C.3     1  UNL1        0.1151
     15 C         138.2514  139.3677  160.9327 C.2     1  UNL1        0.0047
     16 C         139.3858  139.9776  160.1638 C.2     1  UNL1        0.0579
     17 C         138.5187  139.0372  166.9176 C.3     1  UNL1        0.0310
     18 C         138.4519  139.1199  165.4214 C.ar    1  UNL1       -0.0218
     19 C         138.8334  137.9333  164.5869 C.ar    1  UNL1       -0.0043
     20 C         138.7666  138.0159  163.0907 C.ar    1  UNL1       -0.0003
     21 C         138.3182  139.2851  162.4289 C.ar    1  UNL1        0.0001
     22 C         137.9367  140.4717  163.2633 C.ar    1  UNL1       -0.0003
     23 C         138.0035  140.3891  164.7596 C.ar    1  UNL1       -0.0043
     24 C         140.0486  149.3801  153.8864 C.2     1  UNL1        0.2495
     25 O         139.7113  149.5044  152.4302 O.2     1  UNL1       -0.2698
     26 N         140.4902  150.5871  154.6597 N.am    1  UNL1       -0.2794
     27 H         140.7117  150.5055  155.6155 H       1  UNL1        0.1552
     28 C         140.5945  151.9186  153.9767 C.ar    1  UNL1        0.0636
     29 C         141.8624  152.3038  153.2739 C.ar    1  UNL1        0.0159
     30 C         141.9667  153.6352  152.5909 C.ar    1  UNL1        0.0014
     31 C         140.8029  154.5814  152.6107 C.ar    1  UNL1        0.0013
     32 C         139.5349  154.1962  153.3135 C.ar    1  UNL1        0.0153
     33 C         139.4307  152.8648  153.9965 C.ar    1  UNL1        0.0552
     34 N         138.1627  152.4795  154.6993 N.pl3   1  UNL1       -0.3560
     35 H         137.3989  153.1005  154.7122 H       1  UNL1        0.1424
     36 H         138.0944  151.6057  155.1475 H       1  UNL1        0.1424
@<TRIPOS>BOND
     1    17    18    1
     2    18    19   ar
     3    19    20   ar
     4    20    21   ar
     5    21    15    1
     6    15    16    2
     7    16     7    1
     8     7     8    2
     9     7     9   am
    10     9    10    1
    11    10    11    1
    12    11    12    1
    13    12     1    1
    14     1     2   ar
    15     2     3   ar
    16     3     4   ar
    17     4    24    1
    18    24    25    2
    19    24    26   am
    20    26    28    1
    21    28    29   ar
    22    29    30   ar
    23    30    31   ar
    24    31    32   ar
    25    32    33   ar
    26    33    34    1
    27     4     5   ar
    28     5     6   ar
    29    12    13    1
    30    13    14    1
    31    21    22   ar
    32    22    23   ar
    33    23    18   ar
    34    14     9    1
    35     6     1   ar
    36    33    28   ar
    37    26    27    1
    38    34    35    1
    39    34    36    1
@<TRIPOS>MOLECULE
*****
 36 39 0 0 0
SMALL
GASTEIGER

@<TRIPOS>ATOM
      1 C         142.4979  136.3665  156.7597 C.ar    1  UNL1        0.0479
      2 C         143.2391  135.1180  157.1364 C.ar    1  UNL1        0.0147
      3 C         142.9046  133.8169  156.4689 C.ar    1  UNL1        0.0058
      4 C         141.8290  133.7644  155.4248 C.ar    1  UNL1        0.0538
      5 C         141.0878  135.0129  155.0481 C.ar    1  UNL1        0.0058
      6 C         141.4222  136.3139  155.7155 C.ar    1  UNL1        0.0147
      7 C         143.8358  141.5706  159.4294 C.2     1  UNL1        0.2493
      8 O         144.5208  142.6568  158.6542 O.2     1  UNL1       -0.2699
      9 N         143.5013  140.2695  158.7619 N.am    1  UNL1       -0.2726
     10 C         142.8163  139.1833  159.5371 C.3     1  UNL1        0.1151
     11 C         142.4818  137.8822  158.8697 C.3     1  UNL1        0.1123
     12 N         142.8323  137.6674  157.4271 N.pl3   1  UNL1       -0.3041
     13 C         143.5174  138.7538  156.6519 C.3     1  UNL1        0.1123
     14 C         143.8518  140.0547  157.3194 C.3     1  UNL1        0.1151
     15 C         144.4917  141.4809  161.9417 C.2     1  UNL1        0.0047
     16 C         143.4853  141.7854  160.8719 C.2     1  UNL1        0.0579
     17 C         143.0896  142.3400  167.7119 C.3     1  UNL1        0.0310
     18 C         143.4401  142.1253  166.2694 C.ar    1  UNL1       -0.0218
     19 C         144.1766  143.1888  165.5101 C.ar    1  UNL1       -0.0043
     20 C         144.5271  142.9740  164.0676 C.ar    1  UNL1       -0.0003
     21 C         144.1411  141.6957  163.3842 C.ar    1  UNL1        0.0001
     22 C         143.4047  140.6322  164.1435 C.ar    1  UNL1       -0.0003
     23 C         143.0541  140.8470  165.5861 C.ar    1  UNL1       -0.0043
     24 C         141.4945  132.4634  154.7574 C.2     1  UNL1        0.2495
     25 O         140.9716  132.4543  153.3515 O.2     1  UNL1       -0.2698
     26 N         141.6829  131.1715  155.4958 N.am    1  UNL1       -0.2794
     27 H         142.0261  131.1774  156.4186 H       1  UNL1        0.1552
     28 C         141.3484  129.8704  154.8284 C.ar    1  UNL1        0.0636
     29 C         139.9778  129.2802  154.9801 C.ar    1  UNL1        0.0159
     30 C         139.6433  127.9792  154.3126 C.ar    1  UNL1        0.0014
     31 C         140.6796  127.2683  153.4936 C.ar    1  UNL1        0.0013
     32 C         142.0503  127.8585  153.3419 C.ar    1  UNL1        0.0153
     33 C         142.3847  129.1595  154.0093 C.ar    1  UNL1        0.0552
     34 N         143.7554  129.7497  153.8577 N.pl3   1  UNL1       -0.3560
     35 H         144.4355  129.2832  153.3201 H       1  UNL1        0.1424
     36 H         143.9748  130.6036  154.2957 H       1  UNL1        0.1424
@<TRIPOS>BOND
     1    17    18    1
     2    18    19   ar
     3    19    20   ar
     4    20    21   ar
     5    21    15    1
     6    15    16    2
     7    16     7    1
     8     7     8    2
     9     7     9   am
    10     9    10    1
    11    10    11    1
    12    11    12    1
    13    12     1    1
    14     1     2   ar
    15     2     3   ar
    16     3     4   ar
    17     4    24    1
    18    24    25    2
    19    24    26   am
    20    26    28    1
    21    28    29   ar
    22    29    30   ar
    23    30    31   ar
    24    31    32   ar
    25    32    33   ar
    26    33    34    1
    27     4     5   ar
    28     5     6   ar
    29    12    13    1
    30    13    14    1
    31    21    22   ar
    32    22    23   ar
    33    23    18   ar
    34    14     9    1
    35     6     1   ar
    36    33    28   ar
    37    26    27    1
    38    34    35    1
    39    34    36    1
