@<TRIPOS>MOLECULE
*****
 41 45 0 0 0
SMALL
GASTEIGER

@<TRIPOS>ATOM
      1 C         140.5724  139.1009  160.8523 C.3     1  UNL1        0.0747
      2 C         139.4743  138.7111  159.9076 C.3     1  UNL1        0.0369
      3 C         139.8054  138.2825  158.5088 C.3     1  UNL1        0.0741
      4 N         141.2345  138.2437  158.0546 N.3     1  UNL1       -0.2689
      5 C         142.3325  138.6334  158.9993 C.3     1  UNL1        0.0741
      6 C         142.0014  139.0620  160.3982 C.3     1  UNL1        0.0369
      7 O         140.7738  137.1362  163.1105 O.2     1  UNL1       -0.2668
      8 C         140.3420  138.5471  163.3802 C.2     1  UNL1        0.2806
      9 N         140.2413  139.5295  162.2511 N.am    1  UNL1       -0.2999
     10 H         139.9579  140.4555  162.4281 H       1  UNL1        0.1498
     11 C         140.0110  138.9758  164.7790 C.ar    1  UNL1        0.2014
     12 C         138.8559  138.3488  165.5020 C.ar    1  UNL1        0.0843
     13 C         138.5248  138.7774  166.9008 C.ar    1  UNL1        0.2018
     14 O         137.3698  138.1504  167.6238 O.2     1  UNL1       -0.2864
     15 C         139.3488  139.8331  167.5767 C.ar    1  UNL1        0.0737
     16 C         139.0177  140.2617  168.9754 C.ar    1  UNL1        0.0085
     17 C         139.8417  141.3173  169.6512 C.ar    1  UNL1        0.0299
     18 C         140.9968  141.9442  168.9282 C.ar    1  UNL1        0.1432
     19 F         141.8208  142.9999  169.6041 F       1  UNL1       -0.2041
     20 C         141.3279  141.5156  167.5295 C.ar    1  UNL1        0.0672
     21 C         140.5039  140.4600  166.8537 C.ar    1  UNL1        0.1508
     22 O         140.8350  140.0314  165.4548 O.2     1  UNL1       -0.4486
     23 C         141.5656  137.8151  156.6558 C.3     1  UNL1        0.0992
     24 C         141.9007  136.3812  156.3702 C.ar    1  UNL1       -0.0039
     25 C         141.1367  135.6266  155.3230 C.ar    1  UNL1       -0.0026
     26 C         141.4719  134.1926  155.0374 C.ar    1  UNL1        0.0065
     27 C         142.5711  133.5133  155.7991 C.ar    1  UNL1        0.0807
     28 C         143.3352  134.2679  156.8463 C.ar    1  UNL1        0.1442
     29 F         144.4345  133.5886  157.6080 F       1  UNL1       -0.2040
     30 C         143.0000  135.7018  157.1319 C.ar    1  UNL1        0.0269
     31 C         142.9063  132.0794  155.5135 C.2     1  UNL1        0.2481
     32 O         143.4875  131.6953  154.1851 O.2     1  UNL1       -0.2701
     33 N         142.6603  131.0297  156.5563 N.am    1  UNL1       -0.2994
     34 H         142.2788  131.2818  157.4281 H       1  UNL1        0.1498
     35 C         142.9955  129.5958  156.2707 C.3     1  UNL1        0.1070
     36 C         142.1681  128.8121  155.2952 C.3     1  UNL1        0.0936
     37 N         140.9720  128.0437  155.7737 N.3     1  UNL1       -0.2712
     38 C         139.5383  128.3672  155.4734 C.3     1  UNL1        0.0722
     39 C         138.6798  127.3403  156.1506 C.3     1  UNL1        0.0188
     40 C         139.5828  126.3823  156.8695 C.3     1  UNL1        0.0188
     41 C         140.9994  126.8170  156.6366 C.3     1  UNL1        0.0722
@<TRIPOS>BOND
     1     7     8    2
     2     8     9   am
     3     9     1    1
     4     1     2    1
     5     2     3    1
     6     3     4    1
     7     4    23    1
     8    23    24    1
     9    24    25   ar
    10    25    26   ar
    11    26    27   ar
    12    27    31    1
    13    31    32    2
    14    31    33   am
    15    33    35    1
    16    35    36    1
    17    36    37    1
    18    37    38    1
    19    38    39    1
    20    39    40    1
    21    40    41    1
    22    27    28   ar
    23    28    29    1
    24    28    30   ar
    25     4     5    1
    26     5     6    1
    27     8    11    1
    28    11    12   ar
    29    12    13   ar
    30    13    14    2
    31    13    15   ar
    32    15    16   ar
    33    16    17   ar
    34    17    18   ar
    35    18    19    1
    36    18    20   ar
    37    20    21   ar
    38    21    22   ar
    39     6     1    1
    40    22    11   ar
    41    30    24   ar
    42    21    15   ar
    43    41    37    1
    44     9    10    1
    45    33    34    1
@<TRIPOS>MOLECULE
*****
 41 45 0 0 0
SMALL
GASTEIGER

@<TRIPOS>ATOM
      1 C         140.7428  139.3156  160.7921 C.3     1  UNL1        0.0747
      2 C         142.1479  139.4033  160.2746 C.3     1  UNL1        0.0369
      3 C         142.4529  139.0044  158.8612 C.3     1  UNL1        0.0741
      4 N         141.3526  138.5177  157.9652 N.3     1  UNL1       -0.2689
      5 C         139.9475  138.4300  158.4827 C.3     1  UNL1        0.0741
      6 C         139.6426  138.8289  159.8963 C.3     1  UNL1        0.0369
      7 O         140.4447  137.2145  162.9126 O.2     1  UNL1       -0.2668
      8 C         140.2888  138.6639  163.2658 C.2     1  UNL1        0.2806
      9 N         140.4379  139.7144  162.2056 N.am    1  UNL1       -0.2999
     10 H         140.3355  140.6658  162.4374 H       1  UNL1        0.1498
     11 C         139.9839  139.0629  164.6793 C.ar    1  UNL1        0.2014
     12 C         138.8561  138.4049  165.4176 C.ar    1  UNL1        0.0843
     13 C         138.5511  138.8038  166.8311 C.ar    1  UNL1        0.2018
     14 O         137.4233  138.1458  167.5694 O.2     1  UNL1       -0.2864
     15 C         139.3739  139.8607  167.5063 C.ar    1  UNL1        0.0737
     16 C         139.0690  140.2596  168.9197 C.ar    1  UNL1        0.0085
     17 C         139.8918  141.3165  169.5948 C.ar    1  UNL1        0.0299
     18 C         141.0196  141.9745  168.8565 C.ar    1  UNL1        0.1432
     19 F         141.8425  143.0315  169.5317 F       1  UNL1       -0.2041
     20 C         141.3246  141.5756  167.4431 C.ar    1  UNL1        0.0672
     21 C         140.5018  140.5187  166.7680 C.ar    1  UNL1        0.1508
     22 O         140.8067  140.1198  165.3545 O.2     1  UNL1       -0.4486
     23 C         141.6576  138.1189  156.5517 C.3     1  UNL1        0.0992
     24 C         141.9199  136.6801  156.2184 C.ar    1  UNL1       -0.0039
     25 C         141.0554  135.9724  155.2176 C.ar    1  UNL1       -0.0026
     26 C         141.3177  134.5336  154.8843 C.ar    1  UNL1        0.0065
     27 C         142.4445  133.8025  155.5519 C.ar    1  UNL1        0.0807
     28 C         143.3090  134.5102  156.5527 C.ar    1  UNL1        0.1442
     29 F         144.4360  133.7791  157.2203 F       1  UNL1       -0.2040
     30 C         143.0467  135.9490  156.8860 C.ar    1  UNL1        0.0269
     31 C         142.7068  132.3637  155.2186 C.2     1  UNL1        0.2481
     32 O         143.3491  132.0015  153.9124 O.2     1  UNL1       -0.2701
     33 N         142.3269  131.2872  156.1915 N.am    1  UNL1       -0.2994
     34 H         141.9053  131.5249  157.0488 H       1  UNL1        0.1498
     35 C         142.5892  129.8484  155.8582 C.3     1  UNL1        0.1070
     36 C         143.7203  129.1192  156.5207 C.3     1  UNL1        0.0936
     37 N         143.5644  128.6080  157.9223 N.3     1  UNL1       -0.2712
     38 C         142.4894  127.6817  158.4085 C.3     1  UNL1        0.0722
     39 C         142.7168  127.4346  159.8705 C.3     1  UNL1        0.0188
     40 C         143.9322  128.2082  160.2878 C.3     1  UNL1        0.0188
     41 C         144.4561  128.9334  159.0838 C.3     1  UNL1        0.0722
@<TRIPOS>BOND
     1     7     8    2
     2     8     9   am
     3     9     1    1
     4     1     2    1
     5     2     3    1
     6     3     4    1
     7     4    23    1
     8    23    24    1
     9    24    25   ar
    10    25    26   ar
    11    26    27   ar
    12    27    31    1
    13    31    32    2
    14    31    33   am
    15    33    35    1
    16    35    36    1
    17    36    37    1
    18    37    38    1
    19    38    39    1
    20    39    40    1
    21    40    41    1
    22    27    28   ar
    23    28    29    1
    24    28    30   ar
    25     4     5    1
    26     5     6    1
    27     8    11    1
    28    11    12   ar
    29    12    13   ar
    30    13    14    2
    31    13    15   ar
    32    15    16   ar
    33    16    17   ar
    34    17    18   ar
    35    18    19    1
    36    18    20   ar
    37    20    21   ar
    38    21    22   ar
    39     6     1    1
    40    22    11   ar
    41    30    24   ar
    42    21    15   ar
    43    41    37    1
    44     9    10    1
    45    33    34    1
@<TRIPOS>MOLECULE
*****
 41 45 0 0 0
SMALL
GASTEIGER

@<TRIPOS>ATOM
      1 C         139.7909  142.6638  158.4198 C.3     1  UNL1        0.0747
      2 C         140.8513  141.6087  158.5304 C.3     1  UNL1        0.0369
      3 C         140.5769  140.3465  159.2929 C.3     1  UNL1        0.0741
      4 N         139.2419  140.1394  159.9449 N.3     1  UNL1       -0.2689
      5 C         138.1815  141.1945  159.8344 C.3     1  UNL1        0.0741
      6 C         138.4560  142.4568  159.0719 C.3     1  UNL1        0.0369
      7 O         138.2108  143.2977  155.9497 O.2     1  UNL1       -0.2668
      8 C         139.2753  144.2430  156.4222 C.2     1  UNL1        0.2806
      9 N         140.0653  143.9260  157.6573 N.am    1  UNL1       -0.2999
     10 H         140.7640  144.5465  157.9675 H       1  UNL1        0.1498
     11 C         139.5498  145.5053  155.6597 C.ar    1  UNL1        0.2014
     12 C         140.4478  145.4756  154.4586 C.ar    1  UNL1        0.0843
     13 C         140.7223  146.7378  153.6961 C.ar    1  UNL1        0.2018
     14 O         141.6204  146.7082  152.4950 O.2     1  UNL1       -0.2864
     15 C         140.0988  148.0297  154.1347 C.ar    1  UNL1        0.0737
     16 C         140.3733  149.2919  153.3721 C.ar    1  UNL1        0.0085
     17 C         139.7498  150.5837  153.8107 C.ar    1  UNL1        0.0299
     18 C         138.8518  150.6133  155.0118 C.ar    1  UNL1        0.1432
     19 F         138.2282  151.9052  155.4504 F       1  UNL1       -0.2041
     20 C         138.5772  149.3512  155.7743 C.ar    1  UNL1        0.0672
     21 C         139.2008  148.0594  155.3358 C.ar    1  UNL1        0.1508
     22 O         138.9263  146.7971  156.0983 O.2     1  UNL1       -0.4486
     23 C         138.9675  138.8772  160.7075 C.3     1  UNL1        0.0992
     24 C         138.8101  138.9209  162.1986 C.ar    1  UNL1       -0.0039
     25 C         139.0713  137.6912  163.0167 C.ar    1  UNL1       -0.0026
     26 C         138.9139  137.7349  164.5078 C.ar    1  UNL1        0.0065
     27 C         138.4952  139.0084  165.1807 C.ar    1  UNL1        0.0807
     28 C         138.2340  140.2381  164.3626 C.ar    1  UNL1        0.1442
     29 F         137.8153  141.5117  165.0355 F       1  UNL1       -0.2040
     30 C         138.3914  140.1944  162.8715 C.ar    1  UNL1        0.0269
     31 C         138.3378  139.0521  166.6718 C.2     1  UNL1        0.2481
     32 O         137.2710  138.2345  167.3376 O.2     1  UNL1       -0.2701
     33 N         139.2472  139.9134  167.4970 N.am    1  UNL1       -0.2994
     34 H         139.9475  140.4500  167.0600 H       1  UNL1        0.1498
     35 C         139.0898  139.9571  168.9881 C.3     1  UNL1        0.1070
     36 C         139.6520  141.1084  169.7682 C.3     1  UNL1        0.0936
     37 N         141.1162  141.4246  169.6886 N.3     1  UNL1       -0.2712
     38 C         142.2051  140.7641  170.4812 C.3     1  UNL1        0.0722
     39 C         143.5104  141.3881  170.0848 C.3     1  UNL1        0.0188
     40 C         143.2282  142.4340  169.0473 C.3     1  UNL1        0.0188
     41 C         141.7485  142.4565  168.8025 C.3     1  UNL1        0.0722
@<TRIPOS>BOND
     1     7     8    2
     2     8     9   am
     3     9     1    1
     4     1     2    1
     5     2     3    1
     6     3     4    1
     7     4    23    1
     8    23    24    1
     9    24    25   ar
    10    25    26   ar
    11    26    27   ar
    12    27    31    1
    13    31    32    2
    14    31    33   am
    15    33    35    1
    16    35    36    1
    17    36    37    1
    18    37    38    1
    19    38    39    1
    20    39    40    1
    21    40    41    1
    22    27    28   ar
    23    28    29    1
    24    28    30   ar
    25     4     5    1
    26     5     6    1
    27     8    11    1
    28    11    12   ar
    29    12    13   ar
    30    13    14    2
    31    13    15   ar
    32    15    16   ar
    33    16    17   ar
    34    17    18   ar
    35    18    19    1
    36    18    20   ar
    37    20    21   ar
    38    21    22   ar
    39     6     1    1
    40    22    11   ar
    41    30    24   ar
    42    21    15   ar
    43    41    37    1
    44     9    10    1
    45    33    34    1
@<TRIPOS>MOLECULE
*****
 41 45 0 0 0
SMALL
GASTEIGER

@<TRIPOS>ATOM
      1 C         143.5834  142.2643  160.8558 C.3     1  UNL1        0.0747
      2 C         142.5065  141.3037  161.2650 C.3     1  UNL1        0.0369
      3 C         141.7068  141.5587  162.5082 C.3     1  UNL1        0.0741
      4 N         141.9840  142.7743  163.3422 N.3     1  UNL1       -0.2689
      5 C         143.0610  143.7349  162.9330 C.3     1  UNL1        0.0741
      6 C         143.8607  143.4799  161.6898 C.3     1  UNL1        0.0369
      7 O         143.1505  143.9605  158.4195 O.2     1  UNL1       -0.2668
      8 C         144.1666  142.8575  158.3946 C.2     1  UNL1        0.2806
      9 N         144.3831  142.0094  159.6127 N.am    1  UNL1       -0.2999
     10 H         145.0501  141.2854  159.5963 H       1  UNL1        0.1498
     11 C         144.9664  142.6025  157.1514 C.ar    1  UNL1        0.2014
     12 C         144.2764  142.5007  155.8234 C.ar    1  UNL1        0.0843
     13 C         145.0760  142.2457  154.5803 C.ar    1  UNL1        0.2018
     14 O         144.3860  142.1440  153.2523 O.2     1  UNL1       -0.2864
     15 C         146.5658  142.0925  154.6650 C.ar    1  UNL1        0.0737
     16 C         147.3655  141.8375  153.4219 C.ar    1  UNL1        0.0085
     17 C         148.8552  141.6843  153.5067 C.ar    1  UNL1        0.0299
     18 C         149.5453  141.7861  154.8347 C.ar    1  UNL1        0.1432
     19 F         151.0351  141.6329  154.9195 F       1  UNL1       -0.2041
     20 C         148.7456  142.0411  156.0778 C.ar    1  UNL1        0.0672
     21 C         147.2559  142.1943  155.9930 C.ar    1  UNL1        0.1508
     22 O         146.4561  142.4493  157.2362 O.2     1  UNL1       -0.4486
     23 C         141.1843  143.0292  164.5853 C.3     1  UNL1        0.0992
     24 C         141.3434  142.1318  165.7767 C.ar    1  UNL1       -0.0039
     25 C         142.6393  142.1103  166.5318 C.ar    1  UNL1       -0.0026
     26 C         142.7983  141.2128  167.7231 C.ar    1  UNL1        0.0065
     27 C         141.6615  140.3369  168.1594 C.ar    1  UNL1        0.0807
     28 C         140.3657  140.3584  167.4043 C.ar    1  UNL1        0.1442
     29 F         139.2288  139.4824  167.8405 F       1  UNL1       -0.2040
     30 C         140.2066  141.2558  166.2129 C.ar    1  UNL1        0.0269
     31 C         141.8206  139.4394  169.3507 C.2     1  UNL1        0.2481
     32 O         140.7538  139.3953  170.4042 O.2     1  UNL1       -0.2701
     33 N         143.0465  138.5861  169.4885 N.am    1  UNL1       -0.2994
     34 H         143.7467  138.6151  168.7971 H       1  UNL1        0.1498
     35 C         143.2056  137.6887  170.6799 C.3     1  UNL1        0.1070
     36 C         144.0603  136.4597  170.5843 C.3     1  UNL1        0.0936
     37 N         145.0164  136.1233  171.6900 N.3     1  UNL1       -0.2712
     38 C         145.2289  134.7645  172.2890 C.3     1  UNL1        0.0722
     39 C         146.2717  134.8880  173.3601 C.3     1  UNL1        0.0188
     40 C         146.7038  136.3231  173.4231 C.3     1  UNL1        0.0188
     41 C         145.9280  137.0865  172.3910 C.3     1  UNL1        0.0722
@<TRIPOS>BOND
     1     7     8    2
     2     8     9   am
     3     9     1    1
     4     1     2    1
     5     2     3    1
     6     3     4    1
     7     4    23    1
     8    23    24    1
     9    24    25   ar
    10    25    26   ar
    11    26    27   ar
    12    27    31    1
    13    31    32    2
    14    31    33   am
    15    33    35    1
    16    35    36    1
    17    36    37    1
    18    37    38    1
    19    38    39    1
    20    39    40    1
    21    40    41    1
    22    27    28   ar
    23    28    29    1
    24    28    30   ar
    25     4     5    1
    26     5     6    1
    27     8    11    1
    28    11    12   ar
    29    12    13   ar
    30    13    14    2
    31    13    15   ar
    32    15    16   ar
    33    16    17   ar
    34    17    18   ar
    35    18    19    1
    36    18    20   ar
    37    20    21   ar
    38    21    22   ar
    39     6     1    1
    40    22    11   ar
    41    30    24   ar
    42    21    15   ar
    43    41    37    1
    44     9    10    1
    45    33    34    1
@<TRIPOS>MOLECULE
*****
 41 45 0 0 0
SMALL
GASTEIGER

@<TRIPOS>ATOM
      1 C         141.4776  139.9433  161.6154 C.3     1  UNL1        0.0747
      2 C         142.5745  140.5804  160.8149 C.3     1  UNL1        0.0369
      3 C         142.6904  140.3008  159.3458 C.3     1  UNL1        0.0741
      4 N         141.7093  139.3839  158.6771 N.3     1  UNL1       -0.2689
      5 C         140.6125  138.7467  159.4777 C.3     1  UNL1        0.0741
      6 C         140.4966  139.0264  160.9469 C.3     1  UNL1        0.0369
      7 O         143.6089  138.9859  163.4973 O.2     1  UNL1       -0.2668
      8 C         142.4274  139.7442  164.0255 C.2     1  UNL1        0.2806
      9 N         141.3618  140.2229  163.0846 N.am    1  UNL1       -0.2999
     10 H         140.5863  140.7206  163.4312 H       1  UNL1        0.1498
     11 C         142.3115  140.0239  165.4947 C.ar    1  UNL1        0.2014
     12 C         142.8314  139.0300  166.4906 C.ar    1  UNL1        0.0843
     13 C         142.7155  139.3096  167.9597 C.ar    1  UNL1        0.2018
     14 O         143.2354  138.3158  168.9557 O.2     1  UNL1       -0.2864
     15 C         142.0797  140.5832  168.4330 C.ar    1  UNL1        0.0737
     16 C         141.9638  140.8628  169.9021 C.ar    1  UNL1        0.0085
     17 C         141.3280  142.1363  170.3752 C.ar    1  UNL1        0.0299
     18 C         140.8080  143.1301  169.3793 C.ar    1  UNL1        0.1432
     19 F         140.1722  144.4037  169.8525 F       1  UNL1       -0.2041
     20 C         140.9239  142.8505  167.9102 C.ar    1  UNL1        0.0672
     21 C         141.5597  141.5770  167.4370 C.ar    1  UNL1        0.1508
     22 O         141.6756  141.2974  165.9678 O.2     1  UNL1       -0.4486
     23 C         141.8252  139.1043  157.2080 C.3     1  UNL1        0.0992
     24 C         141.8609  137.6882  156.7146 C.ar    1  UNL1       -0.0039
     25 C         140.8858  137.2334  155.6695 C.ar    1  UNL1       -0.0026
     26 C         140.9214  135.8173  155.1761 C.ar    1  UNL1        0.0065
     27 C         141.9322  134.8561  155.7278 C.ar    1  UNL1        0.0807
     28 C         142.9073  135.3109  156.7729 C.ar    1  UNL1        0.1442
     29 F         143.9182  134.3497  157.3246 F       1  UNL1       -0.2040
     30 C         142.8716  136.7270  157.2663 C.ar    1  UNL1        0.0269
     31 C         141.9679  133.4400  155.2344 C.2     1  UNL1        0.2481
     32 O         141.0169  132.4256  155.7969 O.2     1  UNL1       -0.2701
     33 N         142.9546  133.0383  154.1784 N.am    1  UNL1       -0.2994
     34 H         143.5787  133.7041  153.8092 H       1  UNL1        0.1498
     35 C         142.9902  131.6223  153.6850 C.3     1  UNL1        0.1070
     36 C         143.9527  130.6421  154.2875 C.3     1  UNL1        0.0936
     37 N         144.2309  130.6734  155.7612 N.3     1  UNL1       -0.2712
     38 C         145.0981  131.6685  156.4738 C.3     1  UNL1        0.0722
     39 C         145.0939  131.3251  157.9340 C.3     1  UNL1        0.0188
     40 C         144.2241  130.1178  158.1238 C.3     1  UNL1        0.0188
     41 C         143.6907  129.7151  156.7809 C.3     1  UNL1        0.0722
@<TRIPOS>BOND
     1     7     8    2
     2     8     9   am
     3     9     1    1
     4     1     2    1
     5     2     3    1
     6     3     4    1
     7     4    23    1
     8    23    24    1
     9    24    25   ar
    10    25    26   ar
    11    26    27   ar
    12    27    31    1
    13    31    32    2
    14    31    33   am
    15    33    35    1
    16    35    36    1
    17    36    37    1
    18    37    38    1
    19    38    39    1
    20    39    40    1
    21    40    41    1
    22    27    28   ar
    23    28    29    1
    24    28    30   ar
    25     4     5    1
    26     5     6    1
    27     8    11    1
    28    11    12   ar
    29    12    13   ar
    30    13    14    2
    31    13    15   ar
    32    15    16   ar
    33    16    17   ar
    34    17    18   ar
    35    18    19    1
    36    18    20   ar
    37    20    21   ar
    38    21    22   ar
    39     6     1    1
    40    22    11   ar
    41    30    24   ar
    42    21    15   ar
    43    41    37    1
    44     9    10    1
    45    33    34    1
@<TRIPOS>MOLECULE
*****
 41 45 0 0 0
SMALL
GASTEIGER

@<TRIPOS>ATOM
      1 C         140.2062  143.2415  158.3656 C.3     1  UNL1        0.0747
      2 C         140.8562  141.9740  157.8957 C.3     1  UNL1        0.0369
      3 C         140.6831  140.7070  158.6798 C.3     1  UNL1        0.0741
      4 N         139.8601  140.7076  159.9339 N.3     1  UNL1       -0.2689
      5 C         139.2101  141.9752  160.4038 C.3     1  UNL1        0.0741
      6 C         139.3832  143.2422  159.6196 C.3     1  UNL1        0.0369
      7 O         138.3778  143.8429  156.0644 O.2     1  UNL1       -0.2668
      8 C         139.4650  144.8092  156.4309 C.2     1  UNL1        0.2806
      9 N         140.3792  144.5085  157.5815 N.am    1  UNL1       -0.2999
     10 H         141.0928  145.1427  157.8220 H       1  UNL1        0.1498
     11 C         139.6380  146.0762  155.6467 C.ar    1  UNL1        0.2014
     12 C         140.4681  146.0775  154.3973 C.ar    1  UNL1        0.0843
     13 C         140.6412  147.3444  153.6132 C.ar    1  UNL1        0.2018
     14 O         141.4712  147.3457  152.3638 O.2     1  UNL1       -0.2864
     15 C         139.9842  148.6101  154.0785 C.ar    1  UNL1        0.0737
     16 C         140.1572  149.8771  153.2943 C.ar    1  UNL1        0.0085
     17 C         139.5003  151.1427  153.7596 C.ar    1  UNL1        0.0299
     18 C         138.6703  151.1414  155.0091 C.ar    1  UNL1        0.1432
     19 F         138.0133  152.4071  155.4743 F       1  UNL1       -0.2041
     20 C         138.4972  149.8745  155.7932 C.ar    1  UNL1        0.0672
     21 C         139.1541  148.6088  155.3279 C.ar    1  UNL1        0.1508
     22 O         138.9811  147.3418  156.1120 O.2     1  UNL1       -0.4486
     23 C         139.6871  139.4407  160.7180 C.3     1  UNL1        0.0992
     24 C         140.3617  139.2841  162.0486 C.ar    1  UNL1       -0.0039
     25 C         141.5828  140.0937  162.3703 C.ar    1  UNL1       -0.0026
     26 C         142.2573  139.9371  163.7009 C.ar    1  UNL1        0.0065
     27 C         141.7108  138.9710  164.7098 C.ar    1  UNL1        0.0807
     28 C         140.4897  138.1614  164.3881 C.ar    1  UNL1        0.1442
     29 F         139.9431  137.1953  165.3970 F       1  UNL1       -0.2040
     30 C         139.8151  138.3180  163.0575 C.ar    1  UNL1        0.0269
     31 C         142.3854  138.8144  166.0404 C.2     1  UNL1        0.2481
     32 O         143.5637  137.8969  166.1805 O.2     1  UNL1       -0.2701
     33 N         141.8816  139.5753  167.2308 N.am    1  UNL1       -0.2994
     34 H         141.1082  140.1775  167.1388 H       1  UNL1        0.1498
     35 C         142.5561  139.4187  168.5614 C.3     1  UNL1        0.1070
     36 C         142.8319  140.6252  169.4090 C.3     1  UNL1        0.0936
     37 N         141.7501  141.6362  169.6492 N.3     1  UNL1       -0.2712
     38 C         140.7435  141.6032  170.7610 C.3     1  UNL1        0.0722
     39 C         139.8563  142.8043  170.6187 C.3     1  UNL1        0.0188
     40 C         140.3144  143.5795  169.4191 C.3     1  UNL1        0.0188
     41 C         141.4848  142.8576  168.8199 C.3     1  UNL1        0.0722
@<TRIPOS>BOND
     1     7     8    2
     2     8     9   am
     3     9     1    1
     4     1     2    1
     5     2     3    1
     6     3     4    1
     7     4    23    1
     8    23    24    1
     9    24    25   ar
    10    25    26   ar
    11    26    27   ar
    12    27    31    1
    13    31    32    2
    14    31    33   am
    15    33    35    1
    16    35    36    1
    17    36    37    1
    18    37    38    1
    19    38    39    1
    20    39    40    1
    21    40    41    1
    22    27    28   ar
    23    28    29    1
    24    28    30   ar
    25     4     5    1
    26     5     6    1
    27     8    11    1
    28    11    12   ar
    29    12    13   ar
    30    13    14    2
    31    13    15   ar
    32    15    16   ar
    33    16    17   ar
    34    17    18   ar
    35    18    19    1
    36    18    20   ar
    37    20    21   ar
    38    21    22   ar
    39     6     1    1
    40    22    11   ar
    41    30    24   ar
    42    21    15   ar
    43    41    37    1
    44     9    10    1
    45    33    34    1
@<TRIPOS>MOLECULE
*****
 41 45 0 0 0
SMALL
GASTEIGER

@<TRIPOS>ATOM
      1 C         141.8580  138.7972  161.9531 C.3     1  UNL1        0.0747
      2 C         143.2614  139.0025  161.4649 C.3     1  UNL1        0.0369
      3 C         143.5682  138.9021  160.0001 C.3     1  UNL1        0.0741
      4 N         142.4716  138.5963  159.0233 N.3     1  UNL1       -0.2689
      5 C         141.0682  138.3910  159.5115 C.3     1  UNL1        0.0741
      6 C         140.7614  138.4915  160.9764 C.3     1  UNL1        0.0369
      7 O         140.0324  140.9549  162.9588 O.2     1  UNL1       -0.2668
      8 C         140.6384  139.9765  163.9207 C.2     1  UNL1        0.2806
      9 N         141.5512  138.8976  163.4179 N.am    1  UNL1       -0.2999
     10 H         141.9490  138.2555  164.0493 H       1  UNL1        0.1498
     11 C         140.3316  140.0769  165.3857 C.ar    1  UNL1        0.2014
     12 C         139.1505  139.3492  165.9561 C.ar    1  UNL1        0.0843
     13 C         138.8436  139.4496  167.4210 C.ar    1  UNL1        0.2018
     14 O         137.6625  138.7220  167.9914 O.2     1  UNL1       -0.2864
     15 C         139.7180  140.2776  168.3154 C.ar    1  UNL1        0.0737
     16 C         139.4112  140.3780  169.7802 C.ar    1  UNL1        0.0085
     17 C         140.2855  141.2060  170.6746 C.ar    1  UNL1        0.0299
     18 C         141.4667  141.9336  170.1041 C.ar    1  UNL1        0.1432
     19 F         142.3410  142.7617  170.9985 F       1  UNL1       -0.2041
     20 C         141.7735  141.8333  168.6393 C.ar    1  UNL1        0.0672
     21 C         140.8992  141.0053  167.7449 C.ar    1  UNL1        0.1508
     22 O         141.2059  140.9049  166.2800 O.2     1  UNL1       -0.4486
     23 C         142.7784  138.4959  157.5585 C.3     1  UNL1        0.0992
     24 C         142.4811  137.2274  156.8152 C.ar    1  UNL1       -0.0039
     25 C         143.2320  135.9714  157.1447 C.ar    1  UNL1       -0.0026
     26 C         142.9347  134.7029  156.4014 C.ar    1  UNL1        0.0065
     27 C         141.8865  134.6904  155.3286 C.ar    1  UNL1        0.0807
     28 C         141.1355  135.9463  154.9991 C.ar    1  UNL1        0.1442
     29 F         140.0872  135.9338  153.9262 F       1  UNL1       -0.2040
     30 C         141.4328  137.2148  155.7424 C.ar    1  UNL1        0.0269
     31 C         141.5892  133.4218  154.5853 C.2     1  UNL1        0.2481
     32 O         142.1372  133.2158  153.2043 O.2     1  UNL1       -0.2701
     33 N         140.7439  132.3594  155.2230 N.am    1  UNL1       -0.2994
     34 H         140.3843  132.4947  156.1294 H       1  UNL1        0.1498
     35 C         140.4467  131.0909  154.4797 C.3     1  UNL1        0.1070
     36 C         141.1510  129.8202  154.8531 C.3     1  UNL1        0.0936
     37 N         142.5551  129.8675  155.3785 N.3     1  UNL1       -0.2712
     38 C         143.7509  130.4074  154.6513 C.3     1  UNL1        0.0722
     39 C         144.9449  130.2568  155.5468 C.3     1  UNL1        0.0188
     40 C         144.4870  129.6239  156.8274 C.3     1  UNL1        0.0188
     41 C         143.0101  129.3833  156.7233 C.3     1  UNL1        0.0722
@<TRIPOS>BOND
     1     7     8    2
     2     8     9   am
     3     9     1    1
     4     1     2    1
     5     2     3    1
     6     3     4    1
     7     4    23    1
     8    23    24    1
     9    24    25   ar
    10    25    26   ar
    11    26    27   ar
    12    27    31    1
    13    31    32    2
    14    31    33   am
    15    33    35    1
    16    35    36    1
    17    36    37    1
    18    37    38    1
    19    38    39    1
    20    39    40    1
    21    40    41    1
    22    27    28   ar
    23    28    29    1
    24    28    30   ar
    25     4     5    1
    26     5     6    1
    27     8    11    1
    28    11    12   ar
    29    12    13   ar
    30    13    14    2
    31    13    15   ar
    32    15    16   ar
    33    16    17   ar
    34    17    18   ar
    35    18    19    1
    36    18    20   ar
    37    20    21   ar
    38    21    22   ar
    39     6     1    1
    40    22    11   ar
    41    30    24   ar
    42    21    15   ar
    43    41    37    1
    44     9    10    1
    45    33    34    1
@<TRIPOS>MOLECULE
*****
 41 45 0 0 0
SMALL
GASTEIGER

@<TRIPOS>ATOM
      1 C         142.6157  138.3208  157.2496 C.3     1  UNL1        0.0747
      2 C         142.9638  138.4772  158.7003 C.3     1  UNL1        0.0369
      3 C         143.1550  139.8463  159.2823 C.3     1  UNL1        0.0741
      4 N         142.9981  141.0592  158.4137 N.3     1  UNL1       -0.2689
      5 C         142.6500  140.9028  156.9631 C.3     1  UNL1        0.0741
      6 C         142.4588  139.5336  156.3810 C.3     1  UNL1        0.0369
      7 O         144.8163  137.0471  155.6573 O.2     1  UNL1       -0.2668
      8 C         143.5248  136.3148  155.8714 C.2     1  UNL1        0.2806
      9 N         142.4246  136.9516  156.6676 N.am    1  UNL1       -0.2999
     10 H         141.5770  136.4710  156.8081 H       1  UNL1        0.1498
     11 C         143.3336  134.9456  155.2894 C.ar    1  UNL1        0.2014
     12 C         142.3867  134.7432  154.1438 C.ar    1  UNL1        0.0843
     13 C         142.1955  133.3740  153.5617 C.ar    1  UNL1        0.2018
     14 O         141.2486  133.1717  152.4161 O.2     1  UNL1       -0.2864
     15 C         142.9512  132.2072  154.1253 C.ar    1  UNL1        0.0737
     16 C         142.7599  130.8381  153.5432 C.ar    1  UNL1        0.0085
     17 C         143.5156  129.6713  154.1068 C.ar    1  UNL1        0.0299
     18 C         144.4624  129.8737  155.2524 C.ar    1  UNL1        0.1432
     19 F         145.2181  128.7069  155.8160 F       1  UNL1       -0.2041
     20 C         144.6537  131.2428  155.8345 C.ar    1  UNL1        0.0672
     21 C         143.8980  132.4096  155.2709 C.ar    1  UNL1        0.1508
     22 O         144.0893  133.7788  155.8529 O.2     1  UNL1       -0.4486
     23 C         143.1892  142.4284  158.9958 C.3     1  UNL1        0.0992
     24 C         143.3464  142.5980  160.4778 C.ar    1  UNL1       -0.0039
     25 C         144.6950  142.4308  161.1130 C.ar    1  UNL1       -0.0026
     26 C         144.8522  142.6005  162.5950 C.ar    1  UNL1        0.0065
     27 C         143.6609  142.9374  163.4419 C.ar    1  UNL1        0.0807
     28 C         142.3124  143.1047  162.8068 C.ar    1  UNL1        0.1442
     29 F         141.1210  143.4416  163.6537 F       1  UNL1       -0.2040
     30 C         142.1552  142.9350  161.3247 C.ar    1  UNL1        0.0269
     31 C         143.8181  143.1071  164.9240 C.2     1  UNL1        0.2481
     32 O         144.6756  144.2122  165.4656 O.2     1  UNL1       -0.2701
     33 N         143.1179  142.1716  165.8644 N.am    1  UNL1       -0.2994
     34 H         142.5551  141.4463  165.5090 H       1  UNL1        0.1498
     35 C         143.2751  142.3413  167.3465 C.3     1  UNL1        0.1070
     36 C         142.7513  141.2916  168.2813 C.3     1  UNL1        0.0936
     37 N         141.4996  141.5451  169.0680 N.3     1  UNL1       -0.2712
     38 C         140.4407  140.5327  169.3906 C.3     1  UNL1        0.0722
     39 C         139.3736  141.2174  170.1922 C.3     1  UNL1        0.0188
     40 C         139.7730  142.6529  170.3651 C.3     1  UNL1        0.0188
     41 C         141.0869  142.8554  169.6703 C.3     1  UNL1        0.0722
@<TRIPOS>BOND
     1     7     8    2
     2     8     9   am
     3     9     1    1
     4     1     2    1
     5     2     3    1
     6     3     4    1
     7     4    23    1
     8    23    24    1
     9    24    25   ar
    10    25    26   ar
    11    26    27   ar
    12    27    31    1
    13    31    32    2
    14    31    33   am
    15    33    35    1
    16    35    36    1
    17    36    37    1
    18    37    38    1
    19    38    39    1
    20    39    40    1
    21    40    41    1
    22    27    28   ar
    23    28    29    1
    24    28    30   ar
    25     4     5    1
    26     5     6    1
    27     8    11    1
    28    11    12   ar
    29    12    13   ar
    30    13    14    2
    31    13    15   ar
    32    15    16   ar
    33    16    17   ar
    34    17    18   ar
    35    18    19    1
    36    18    20   ar
    37    20    21   ar
    38    21    22   ar
    39     6     1    1
    40    22    11   ar
    41    30    24   ar
    42    21    15   ar
    43    41    37    1
    44     9    10    1
    45    33    34    1
@<TRIPOS>MOLECULE
*****
 41 45 0 0 0
SMALL
GASTEIGER

@<TRIPOS>ATOM
      1 C         142.6205  136.8478  156.5441 C.3     1  UNL1        0.0747
      2 C         141.3855  137.4897  157.1032 C.3     1  UNL1        0.0369
      3 C         141.1910  138.9722  156.9838 C.3     1  UNL1        0.0741
      4 N         142.2317  139.8129  156.3052 N.3     1  UNL1       -0.2689
      5 C         143.4667  139.1710  155.7461 C.3     1  UNL1        0.0741
      6 C         143.6611  137.6884  155.8656 C.3     1  UNL1        0.0369
      7 O         141.0426  134.9829  154.8027 O.2     1  UNL1       -0.2668
      8 C         142.0260  134.4328  155.7928 C.2     1  UNL1        0.2806
      9 N         142.8149  135.3653  156.6635 N.am    1  UNL1       -0.2999
     10 H         143.4603  135.0042  157.3134 H       1  UNL1        0.1498
     11 C         142.2205  132.9503  155.9122 C.ar    1  UNL1        0.2014
     12 C         141.3911  132.0158  155.0822 C.ar    1  UNL1        0.0843
     13 C         141.5855  130.5333  155.2016 C.ar    1  UNL1        0.2018
     14 O         140.7562  129.5988  154.3716 O.2     1  UNL1       -0.2864
     15 C         142.6093  129.9852  156.1511 C.ar    1  UNL1        0.0737
     16 C         142.8037  128.5026  156.2706 C.ar    1  UNL1        0.0085
     17 C         143.8275  127.9546  157.2200 C.ar    1  UNL1        0.0299
     18 C         144.6568  128.8891  158.0501 C.ar    1  UNL1        0.1432
     19 F         145.6806  128.3409  158.9996 F       1  UNL1       -0.2041
     20 C         144.4624  130.3716  157.9307 C.ar    1  UNL1        0.0672
     21 C         143.4387  130.9196  156.9812 C.ar    1  UNL1        0.1508
     22 O         143.2442  132.4022  156.8617 O.2     1  UNL1       -0.4486
     23 C         142.0373  141.2954  156.1858 C.3     1  UNL1        0.0992
     24 C         141.4625  142.0714  157.3336 C.ar    1  UNL1       -0.0039
     25 C         140.1568  142.7919  157.1728 C.ar    1  UNL1       -0.0026
     26 C         139.5820  143.5679  158.3206 C.ar    1  UNL1        0.0065
     27 C         140.3128  143.6232  159.6293 C.ar    1  UNL1        0.0807
     28 C         141.6185  142.9026  159.7902 C.ar    1  UNL1        0.1442
     29 F         142.3494  142.9579  161.0989 F       1  UNL1       -0.2040
     30 C         142.1933  142.1267  158.6423 C.ar    1  UNL1        0.0269
     31 C         139.7380  144.3991  160.7771 C.2     1  UNL1        0.2481
     32 O         139.7620  145.8987  160.7555 O.2     1  UNL1       -0.2701
     33 N         139.1391  143.6754  161.9465 N.am    1  UNL1       -0.2994
     34 H         139.1234  142.6912  161.9607 H       1  UNL1        0.1498
     35 C         138.5643  144.4514  163.0944 C.3     1  UNL1        0.1070
     36 C         139.4133  144.7577  164.2925 C.3     1  UNL1        0.0936
     37 N         140.8941  144.5243  164.2419 N.3     1  UNL1       -0.2712
     38 C         141.6162  143.3234  164.7774 C.3     1  UNL1        0.0722
     39 C         143.0813  143.5077  164.5133 C.3     1  UNL1        0.0188
     40 C         143.2646  144.8224  163.8147 C.3     1  UNL1        0.0188
     41 C         141.9129  145.4506  163.6470 C.3     1  UNL1        0.0722
@<TRIPOS>BOND
     1     7     8    2
     2     8     9   am
     3     9     1    1
     4     1     2    1
     5     2     3    1
     6     3     4    1
     7     4    23    1
     8    23    24    1
     9    24    25   ar
    10    25    26   ar
    11    26    27   ar
    12    27    31    1
    13    31    32    2
    14    31    33   am
    15    33    35    1
    16    35    36    1
    17    36    37    1
    18    37    38    1
    19    38    39    1
    20    39    40    1
    21    40    41    1
    22    27    28   ar
    23    28    29    1
    24    28    30   ar
    25     4     5    1
    26     5     6    1
    27     8    11    1
    28    11    12   ar
    29    12    13   ar
    30    13    14    2
    31    13    15   ar
    32    15    16   ar
    33    16    17   ar
    34    17    18   ar
    35    18    19    1
    36    18    20   ar
    37    20    21   ar
    38    21    22   ar
    39     6     1    1
    40    22    11   ar
    41    30    24   ar
    42    21    15   ar
    43    41    37    1
    44     9    10    1
    45    33    34    1
