@<TRIPOS>MOLECULE
*****
 36 39 0 0 0
SMALL
GASTEIGER

@<TRIPOS>ATOM
      1 C         144.0270  138.8343  164.3509 C.3     1  UNL1        0.0522
      2 C         143.6806  140.1901  164.8913 C.ar    1  UNL1        0.0637
      3 N         143.0704  140.3203  166.2553 N.ar    1  UNL1       -0.2180
      4 C         142.7240  141.6761  166.7956 C.ar    1  UNL1        0.2198
      5 N         142.9878  142.9016  165.9719 N.ar    1  UNL1       -0.2136
      6 C         143.5980  142.7714  164.6078 C.ar    1  UNL1        0.0854
      7 C         143.8617  143.9969  163.7841 C.ar    1  UNL1        0.0205
      8 C         144.4719  143.8666  162.4200 C.ar    1  UNL1        0.0162
      9 C         144.8183  142.5109  161.8797 C.ar    1  UNL1        0.0507
     10 C         144.5546  141.2854  162.7034 C.ar    1  UNL1        0.0174
     11 C         143.9444  141.4156  164.0675 C.ar    1  UNL1        0.0326
     12 N         142.1138  141.8063  168.1598 N.pl3   1  UNL1       -0.2780
     13 C         142.6741  141.0232  169.3099 C.3     1  UNL1        0.0961
     14 C         142.0639  141.1535  170.6739 C.3     1  UNL1        0.0508
     15 C         140.8934  142.0667  170.8878 C.3     1  UNL1        0.1139
     16 O         140.2832  142.1969  172.2520 O.3     1  UNL1       -0.3843
     17 C         140.3331  142.8498  169.7377 C.3     1  UNL1        0.0508
     18 C         140.9433  142.7196  168.3737 C.3     1  UNL1        0.0961
     19 H         140.7609  141.6279  172.8755 H       1  UNL1        0.2103
     20 N         145.4285  142.3807  160.5156 N.am    1  UNL1       -0.2804
     21 C         144.5738  142.5399  159.2933 C.2     1  UNL1        0.2496
     22 O         143.1088  142.8293  159.4351 O.2     1  UNL1       -0.2698
     23 H         146.3900  142.1907  160.4225 H       1  UNL1        0.1552
     24 C         145.1840  142.4097  157.9292 C.2     1  UNL1        0.0580
     25 C         146.6293  142.7510  157.7184 C.2     1  UNL1        0.0047
     26 C         147.2394  142.6208  156.3543 C.ar    1  UNL1        0.0003
     27 C         146.4327  142.9610  155.1363 C.ar    1  UNL1        0.0031
     28 C         147.0428  142.8307  153.7722 C.ar    1  UNL1        0.0372
     29 C         148.4597  142.3604  153.6261 C.ar    1  UNL1        0.1468
     30 C         149.2664  142.0203  154.8440 C.ar    1  UNL1        0.0372
     31 C         148.6563  142.1505  156.2082 C.ar    1  UNL1        0.0031
     32 O         149.0698  142.2302  152.2620 O.3     1  UNL1       -0.4045
     33 C         150.5567  142.0974  152.1150 C.3     1  UNL1        0.5753
     34 F         152.0436  141.9648  151.9680 F       1  UNL1       -0.1328
     35 F         150.4147  140.6070  152.0243 F       1  UNL1       -0.1328
     36 F         150.6987  143.5879  152.2057 F       1  UNL1       -0.1328
@<TRIPOS>BOND
     1     1     2    1
     2     2     3   ar
     3     3     4   ar
     4     4    12    1
     5    12    13    1
     6    13    14    1
     7    14    15    1
     8    15    16    1
     9    15    17    1
    10    17    18    1
    11     4     5   ar
    12     5     6   ar
    13     6     7   ar
    14     7     8   ar
    15     8     9   ar
    16     9    20    1
    17    20    21   am
    18    21    22    2
    19    21    24    1
    20    24    25    2
    21    25    26    1
    22    26    27   ar
    23    27    28   ar
    24    28    29   ar
    25    29    32    1
    26    32    33    1
    27    33    34    1
    28    33    35    1
    29    33    36    1
    30    29    30   ar
    31    30    31   ar
    32     9    10   ar
    33    10    11   ar
    34    11     2   ar
    35    18    12    1
    36    11     6   ar
    37    31    26   ar
    38    16    19    1
    39    20    23    1
@<TRIPOS>MOLECULE
*****
 36 39 0 0 0
SMALL
GASTEIGER

@<TRIPOS>ATOM
      1 C         141.0723  137.0208  164.4845 C.3     1  UNL1        0.0522
      2 C         141.2339  138.5114  164.4388 C.ar    1  UNL1        0.0637
      3 N         141.3498  139.2926  165.7140 N.ar    1  UNL1       -0.2180
      4 C         141.5114  140.7832  165.6684 C.ar    1  UNL1        0.2198
      5 N         141.5569  141.4925  164.3476 N.ar    1  UNL1       -0.2136
      6 C         141.4410  140.7113  163.0722 C.ar    1  UNL1        0.0854
      7 C         141.4866  141.4206  161.7514 C.ar    1  UNL1        0.0205
      8 C         141.3706  140.6394  160.4762 C.ar    1  UNL1        0.0162
      9 C         141.2091  139.1488  160.5218 C.ar    1  UNL1        0.0507
     10 C         141.1635  138.4395  161.8427 C.ar    1  UNL1        0.0174
     11 C         141.2795  139.2207  163.1179 C.ar    1  UNL1        0.0326
     12 N         141.6273  141.5644  166.9437 N.pl3   1  UNL1       -0.2780
     13 C         142.9607  141.7108  167.6150 C.3     1  UNL1        0.0961
     14 C         143.0766  142.4920  168.8902 C.3     1  UNL1        0.0508
     15 C         141.8591  143.1268  169.4942 C.3     1  UNL1        0.1139
     16 O         141.9751  143.9080  170.7695 O.3     1  UNL1       -0.3843
     17 C         140.5257  142.9804  168.8229 C.3     1  UNL1        0.0508
     18 C         140.4098  142.1992  167.5477 C.3     1  UNL1        0.0961
     19 H         142.8980  143.9045  171.0680 H       1  UNL1        0.2103
     20 N         141.0932  138.3676  159.2465 N.am    1  UNL1       -0.2804
     21 C         142.3074  138.1330  158.3977 C.2     1  UNL1        0.2496
     22 O         143.6376  138.6796  158.8241 O.2     1  UNL1       -0.2698
     23 H         140.2201  138.0089  158.9667 H       1  UNL1        0.1552
     24 C         142.1914  137.3518  157.1224 C.2     1  UNL1        0.0580
     25 C         142.5422  135.8936  157.1016 C.2     1  UNL1        0.0047
     26 C         142.4263  135.1124  155.8263 C.ar    1  UNL1        0.0003
     27 C         142.0731  135.8124  154.5475 C.ar    1  UNL1        0.0031
     28 C         141.9571  135.0313  153.2722 C.ar    1  UNL1        0.0372
     29 C         142.1943  133.5501  153.2757 C.ar    1  UNL1        0.1468
     30 C         142.5475  132.8502  154.5545 C.ar    1  UNL1        0.0372
     31 C         142.6635  133.6313  155.8298 C.ar    1  UNL1        0.0031
     32 O         142.0784  132.7690  152.0005 O.3     1  UNL1       -0.4045
     33 C         141.4012  131.4305  151.9997 C.3     1  UNL1        0.5753
     34 F         140.7241  130.0920  151.9990 F       1  UNL1       -0.1328
     35 F         140.0631  132.1074  152.0327 F       1  UNL1       -0.1328
     36 F         142.7393  130.7536  151.9668 F       1  UNL1       -0.1328
@<TRIPOS>BOND
     1     1     2    1
     2     2     3   ar
     3     3     4   ar
     4     4    12    1
     5    12    13    1
     6    13    14    1
     7    14    15    1
     8    15    16    1
     9    15    17    1
    10    17    18    1
    11     4     5   ar
    12     5     6   ar
    13     6     7   ar
    14     7     8   ar
    15     8     9   ar
    16     9    20    1
    17    20    21   am
    18    21    22    2
    19    21    24    1
    20    24    25    2
    21    25    26    1
    22    26    27   ar
    23    27    28   ar
    24    28    29   ar
    25    29    32    1
    26    32    33    1
    27    33    34    1
    28    33    35    1
    29    33    36    1
    30    29    30   ar
    31    30    31   ar
    32     9    10   ar
    33    10    11   ar
    34    11     2   ar
    35    18    12    1
    36    11     6   ar
    37    31    26   ar
    38    16    19    1
    39    20    23    1
@<TRIPOS>MOLECULE
*****
 36 39 0 0 0
SMALL
GASTEIGER

@<TRIPOS>ATOM
      1 C         136.9670  143.6283  154.7789 C.3     1  UNL1        0.0522
      2 C         138.1649  144.4586  155.1332 C.ar    1  UNL1        0.0637
      3 N         138.0588  145.9546  155.1609 N.ar    1  UNL1       -0.2180
      4 C         139.2567  146.7850  155.5152 C.ar    1  UNL1        0.2198
      5 N         140.5607  146.1194  155.8418 N.ar    1  UNL1       -0.2136
      6 C         140.6668  144.6234  155.8141 C.ar    1  UNL1        0.0854
      7 C         141.9707  143.9578  156.1407 C.ar    1  UNL1        0.0205
      8 C         142.0768  142.4619  156.1130 C.ar    1  UNL1        0.0162
      9 C         140.8789  141.6315  155.7587 C.ar    1  UNL1        0.0507
     10 C         139.5749  142.2970  155.4321 C.ar    1  UNL1        0.0174
     11 C         139.4689  143.7930  155.4598 C.ar    1  UNL1        0.0326
     12 N         139.1506  148.2810  155.5429 N.pl3   1  UNL1       -0.2780
     13 C         138.5422  148.9679  156.7295 C.3     1  UNL1        0.0961
     14 C         138.4361  150.4639  156.7571 C.3     1  UNL1        0.0508
     15 C         138.9385  151.2729  155.5982 C.3     1  UNL1        0.1139
     16 O         138.8323  152.7690  155.6259 O.3     1  UNL1       -0.3843
     17 C         139.5469  150.5861  154.4117 C.3     1  UNL1        0.0508
     18 C         139.6530  149.0901  154.3840 C.3     1  UNL1        0.0961
     19 H         138.4185  153.0484  156.4575 H       1  UNL1        0.2103
     20 N         140.9850  140.1354  155.7310 N.am    1  UNL1       -0.2804
     21 C         140.9236  139.3554  157.0107 C.2     1  UNL1        0.2496
     22 O         140.7562  140.0713  158.3182 O.2     1  UNL1       -0.2698
     23 H         141.0949  139.6655  154.8729 H       1  UNL1        0.1552
     24 C         141.0298  137.8593  156.9830 C.2     1  UNL1        0.0580
     25 C         142.2047  137.2029  156.3208 C.2     1  UNL1        0.0047
     26 C         142.3108  135.7070  156.2932 C.ar    1  UNL1        0.0003
     27 C         143.2865  135.0075  157.1925 C.ar    1  UNL1        0.0031
     28 C         143.3925  133.5115  157.1649 C.ar    1  UNL1        0.0372
     29 C         142.5229  132.7150  156.2379 C.ar    1  UNL1        0.1468
     30 C         141.5473  133.4144  155.3386 C.ar    1  UNL1        0.0372
     31 C         141.4412  134.9104  155.3662 C.ar    1  UNL1        0.0031
     32 O         142.6290  131.2190  156.2102 O.3     1  UNL1       -0.4045
     33 C         143.9354  130.5659  155.8683 C.3     1  UNL1        0.5753
     34 F         145.2417  129.9128  155.5264 F       1  UNL1       -0.1328
     35 F         143.9706  131.3160  154.5698 F       1  UNL1       -0.1328
     36 F         143.9002  129.8158  157.1668 F       1  UNL1       -0.1328
@<TRIPOS>BOND
     1     1     2    1
     2     2     3   ar
     3     3     4   ar
     4     4    12    1
     5    12    13    1
     6    13    14    1
     7    14    15    1
     8    15    16    1
     9    15    17    1
    10    17    18    1
    11     4     5   ar
    12     5     6   ar
    13     6     7   ar
    14     7     8   ar
    15     8     9   ar
    16     9    20    1
    17    20    21   am
    18    21    22    2
    19    21    24    1
    20    24    25    2
    21    25    26    1
    22    26    27   ar
    23    27    28   ar
    24    28    29   ar
    25    29    32    1
    26    32    33    1
    27    33    34    1
    28    33    35    1
    29    33    36    1
    30    29    30   ar
    31    30    31   ar
    32     9    10   ar
    33    10    11   ar
    34    11     2   ar
    35    18    12    1
    36    11     6   ar
    37    31    26   ar
    38    16    19    1
    39    20    23    1
@<TRIPOS>MOLECULE
*****
 36 39 0 0 0
SMALL
GASTEIGER

@<TRIPOS>ATOM
      1 C         141.8739  144.3390  158.6166 C.3     1  UNL1        0.0522
      2 C         140.8067  144.6962  157.6248 C.ar    1  UNL1        0.0637
      3 N         140.5402  146.1351  157.2955 N.ar    1  UNL1       -0.2180
      4 C         139.4730  146.4924  156.3038 C.ar    1  UNL1        0.2198
      5 N         138.6725  145.4107  155.6413 N.ar    1  UNL1       -0.2136
      6 C         138.9390  143.9717  155.9705 C.ar    1  UNL1        0.0854
      7 C         138.1384  142.8900  155.3080 C.ar    1  UNL1        0.0205
      8 C         138.4049  141.4511  155.6373 C.ar    1  UNL1        0.0162
      9 C         139.4721  141.0939  156.6290 C.ar    1  UNL1        0.0507
     10 C         140.2727  142.1756  157.2916 C.ar    1  UNL1        0.0174
     11 C         140.0061  143.6145  156.9623 C.ar    1  UNL1        0.0326
     12 N         139.2065  147.9314  155.9745 N.pl3   1  UNL1       -0.2780
     13 C         138.5121  148.8124  156.9702 C.3     1  UNL1        0.0961
     14 C         138.2456  150.2513  156.6410 C.3     1  UNL1        0.0508
     15 C         138.6735  150.8092  155.3160 C.3     1  UNL1        0.1139
     16 O         138.4070  152.2482  154.9867 O.3     1  UNL1       -0.3843
     17 C         139.3680  149.9282  154.3202 C.3     1  UNL1        0.0508
     18 C         139.6345  148.4892  154.6495 C.3     1  UNL1        0.0961
     19 H         137.9545  152.6721  155.7326 H       1  UNL1        0.2103
     20 N         139.7386  139.6549  156.9583 N.am    1  UNL1       -0.2804
     21 C         140.6794  138.8530  156.1088 C.2     1  UNL1        0.2496
     22 O         141.3538  139.4899  154.9301 O.2     1  UNL1       -0.2698
     23 H         139.2960  139.2368  157.7320 H       1  UNL1        0.1552
     24 C         140.9460  137.4140  156.4381 C.2     1  UNL1        0.0580
     25 C         142.0690  136.6853  155.7615 C.2     1  UNL1        0.0047
     26 C         142.3355  135.2464  156.0908 C.ar    1  UNL1        0.0003
     27 C         143.3432  134.8922  157.1440 C.ar    1  UNL1        0.0031
     28 C         143.6097  133.4533  157.4732 C.ar    1  UNL1        0.0372
     29 C         142.8685  132.3685  156.7494 C.ar    1  UNL1        0.1468
     30 C         141.8608  132.7227  155.6962 C.ar    1  UNL1        0.0372
     31 C         141.5943  134.1617  155.3669 C.ar    1  UNL1        0.0031
     32 O         143.1349  130.9296  157.0786 O.3     1  UNL1       -0.4045
     33 C         143.7424  130.0244  156.0482 C.3     1  UNL1        0.5753
     34 F         144.3498  129.1193  155.0178 F       1  UNL1       -0.1328
     35 F         144.9760  130.8775  156.0260 F       1  UNL1       -0.1328
     36 F         142.5088  129.1714  156.0703 F       1  UNL1       -0.1328
@<TRIPOS>BOND
     1     1     2    1
     2     2     3   ar
     3     3     4   ar
     4     4    12    1
     5    12    13    1
     6    13    14    1
     7    14    15    1
     8    15    16    1
     9    15    17    1
    10    17    18    1
    11     4     5   ar
    12     5     6   ar
    13     6     7   ar
    14     7     8   ar
    15     8     9   ar
    16     9    20    1
    17    20    21   am
    18    21    22    2
    19    21    24    1
    20    24    25    2
    21    25    26    1
    22    26    27   ar
    23    27    28   ar
    24    28    29   ar
    25    29    32    1
    26    32    33    1
    27    33    34    1
    28    33    35    1
    29    33    36    1
    30    29    30   ar
    31    30    31   ar
    32     9    10   ar
    33    10    11   ar
    34    11     2   ar
    35    18    12    1
    36    11     6   ar
    37    31    26   ar
    38    16    19    1
    39    20    23    1
@<TRIPOS>MOLECULE
*****
 36 39 0 0 0
SMALL
GASTEIGER

@<TRIPOS>ATOM
      1 C         141.1777  143.6546  152.9136 C.3     1  UNL1        0.0522
      2 C         140.6781  144.3366  154.1527 C.ar    1  UNL1        0.0637
      3 N         140.3187  145.7924  154.1145 N.ar    1  UNL1       -0.2180
      4 C         139.8191  146.4743  155.3536 C.ar    1  UNL1        0.2198
      5 N         139.6790  145.7005  156.6309 N.ar    1  UNL1       -0.2136
      6 C         140.0385  144.2446  156.6691 C.ar    1  UNL1        0.0854
      7 C         139.8984  143.4708  157.9464 C.ar    1  UNL1        0.0205
      8 C         140.2579  142.0151  157.9846 C.ar    1  UNL1        0.0162
      9 C         140.7574  141.3331  156.7455 C.ar    1  UNL1        0.0507
     10 C         140.8975  142.1069  155.4682 C.ar    1  UNL1        0.0174
     11 C         140.5380  143.5627  155.4300 C.ar    1  UNL1        0.0326
     12 N         139.4597  147.9301  155.3153 N.pl3   1  UNL1       -0.2780
     13 C         138.6787  148.5397  156.4416 C.3     1  UNL1        0.0961
     14 C         138.3193  149.9954  156.4034 C.3     1  UNL1        0.0508
     15 C         138.7408  150.8417  155.2388 C.3     1  UNL1        0.1139
     16 O         138.3813  152.2975  155.2005 O.3     1  UNL1       -0.3843
     17 C         139.5217  150.2321  154.1125 C.3     1  UNL1        0.0508
     18 C         139.8811  148.7764  154.1508 C.3     1  UNL1        0.0961
     19 H         137.8806  152.5280  155.9987 H       1  UNL1        0.2103
     20 N         141.1169  139.8773  156.7837 N.am    1  UNL1       -0.2804
     21 C         140.0367  138.8370  156.7520 C.2     1  UNL1        0.2496
     22 O         138.5971  139.2524  156.6820 O.2     1  UNL1       -0.2698
     23 H         142.0617  139.6046  156.8297 H       1  UNL1        0.1552
     24 C         140.3962  137.3811  156.7902 C.2     1  UNL1        0.0580
     25 C         141.6436  136.8985  156.1113 C.2     1  UNL1        0.0047
     26 C         142.0030  135.4428  156.1496 C.ar    1  UNL1        0.0003
     27 C         143.0349  134.9502  157.1206 C.ar    1  UNL1        0.0031
     28 C         143.3943  133.4945  157.1588 C.ar    1  UNL1        0.0372
     29 C         142.7219  132.5312  156.2261 C.ar    1  UNL1        0.1468
     30 C         141.6901  133.0236  155.2551 C.ar    1  UNL1        0.0372
     31 C         141.3306  134.4795  155.2168 C.ar    1  UNL1        0.0031
     32 O         143.0813  131.0754  156.2644 O.3     1  UNL1       -0.4045
     33 C         144.1821  130.5980  157.1647 C.3     1  UNL1        0.5753
     34 F         145.2828  130.1207  158.0649 F       1  UNL1       -0.1328
     35 F         143.1638  130.1324  158.1629 F       1  UNL1       -0.1328
     36 F         145.2003  131.0636  156.1666 F       1  UNL1       -0.1328
@<TRIPOS>BOND
     1     1     2    1
     2     2     3   ar
     3     3     4   ar
     4     4    12    1
     5    12    13    1
     6    13    14    1
     7    14    15    1
     8    15    16    1
     9    15    17    1
    10    17    18    1
    11     4     5   ar
    12     5     6   ar
    13     6     7   ar
    14     7     8   ar
    15     8     9   ar
    16     9    20    1
    17    20    21   am
    18    21    22    2
    19    21    24    1
    20    24    25    2
    21    25    26    1
    22    26    27   ar
    23    27    28   ar
    24    28    29   ar
    25    29    32    1
    26    32    33    1
    27    33    34    1
    28    33    35    1
    29    33    36    1
    30    29    30   ar
    31    30    31   ar
    32     9    10   ar
    33    10    11   ar
    34    11     2   ar
    35    18    12    1
    36    11     6   ar
    37    31    26   ar
    38    16    19    1
    39    20    23    1
@<TRIPOS>MOLECULE
*****
 36 39 0 0 0
SMALL
GASTEIGER

@<TRIPOS>ATOM
      1 C         142.3523  138.3462  159.8548 C.3     1  UNL1        0.0522
      2 C         143.0779  139.6341  159.6003 C.ar    1  UNL1        0.0637
      3 N         143.8909  139.8027  158.3511 N.ar    1  UNL1       -0.2180
      4 C         144.6165  141.0906  158.0965 C.ar    1  UNL1        0.2198
      5 N         144.5291  142.2100  159.0912 N.ar    1  UNL1       -0.2136
      6 C         143.7160  142.0414  160.3405 C.ar    1  UNL1        0.0854
      7 C         143.6286  143.1607  161.3352 C.ar    1  UNL1        0.0205
      8 C         142.8156  142.9921  162.5844 C.ar    1  UNL1        0.0162
      9 C         142.0900  141.7042  162.8389 C.ar    1  UNL1        0.0507
     10 C         142.1774  140.5849  161.8442 C.ar    1  UNL1        0.0174
     11 C         142.9904  140.7535  160.5950 C.ar    1  UNL1        0.0326
     12 N         145.4295  141.2592  156.8473 N.pl3   1  UNL1       -0.2780
     13 C         145.1163  140.4377  155.6320 C.3     1  UNL1        0.0961
     14 C         145.9293  140.6063  154.3828 C.3     1  UNL1        0.0508
     15 C         147.0556  141.5963  154.3489 C.3     1  UNL1        0.1139
     16 O         147.8687  141.7649  153.0996 O.3     1  UNL1       -0.3843
     17 C         147.3689  142.4178  155.5642 C.3     1  UNL1        0.0508
     18 C         146.5559  142.2493  156.8134 C.3     1  UNL1        0.0961
     19 H         147.5371  141.1635  152.4145 H       1  UNL1        0.2103
     20 N         141.2770  141.5357  164.0882 N.am    1  UNL1       -0.2804
     21 C         141.8741  140.8584  165.2859 C.2     1  UNL1        0.2496
     22 O         143.2842  140.3497  165.2345 O.2     1  UNL1       -0.2698
     23 H         140.3514  141.8696  164.1219 H       1  UNL1        0.1552
     24 C         141.0610  140.6899  166.5352 C.2     1  UNL1        0.0580
     25 C         139.8178  139.8508  166.5135 C.2     1  UNL1        0.0047
     26 C         139.0049  139.6823  167.7627 C.ar    1  UNL1        0.0003
     27 C         139.4028  140.3991  169.0190 C.ar    1  UNL1        0.0031
     28 C         138.5898  140.2306  170.2682 C.ar    1  UNL1        0.0372
     29 C         137.3789  139.3453  170.2613 C.ar    1  UNL1        0.1468
     30 C         136.9810  138.6286  169.0052 C.ar    1  UNL1        0.0372
     31 C         137.7940  138.7971  167.7558 C.ar    1  UNL1        0.0031
     32 O         136.5659  139.1768  171.5105 O.3     1  UNL1       -0.4045
     33 C         136.2259  137.8018  172.0043 C.3     1  UNL1        0.5753
     34 F         135.8858  136.4269  172.4981 F       1  UNL1       -0.1328
     35 F         137.6865  137.4921  172.1479 F       1  UNL1       -0.1328
     36 F         134.7653  138.1115  171.8607 F       1  UNL1       -0.1328
@<TRIPOS>BOND
     1     1     2    1
     2     2     3   ar
     3     3     4   ar
     4     4    12    1
     5    12    13    1
     6    13    14    1
     7    14    15    1
     8    15    16    1
     9    15    17    1
    10    17    18    1
    11     4     5   ar
    12     5     6   ar
    13     6     7   ar
    14     7     8   ar
    15     8     9   ar
    16     9    20    1
    17    20    21   am
    18    21    22    2
    19    21    24    1
    20    24    25    2
    21    25    26    1
    22    26    27   ar
    23    27    28   ar
    24    28    29   ar
    25    29    32    1
    26    32    33    1
    27    33    34    1
    28    33    35    1
    29    33    36    1
    30    29    30   ar
    31    30    31   ar
    32     9    10   ar
    33    10    11   ar
    34    11     2   ar
    35    18    12    1
    36    11     6   ar
    37    31    26   ar
    38    16    19    1
    39    20    23    1
@<TRIPOS>MOLECULE
*****
 36 39 0 0 0
SMALL
GASTEIGER

@<TRIPOS>ATOM
      1 C         141.1257  141.7603  158.6794 C.3     1  UNL1        0.0522
      2 C         141.0610  142.2349  157.2579 C.ar    1  UNL1        0.0637
      3 N         140.7150  143.6635  156.9592 N.ar    1  UNL1       -0.2180
      4 C         140.6504  144.1381  155.5377 C.ar    1  UNL1        0.2198
      5 N         140.9318  143.1841  154.4150 N.ar    1  UNL1       -0.2136
      6 C         141.2779  141.7554  154.7137 C.ar    1  UNL1        0.0854
      7 C         141.5593  140.8014  153.5909 C.ar    1  UNL1        0.0205
      8 C         141.9053  139.3728  153.8897 C.ar    1  UNL1        0.0162
      9 C         141.9699  138.8982  155.3111 C.ar    1  UNL1        0.0507
     10 C         141.6885  139.8522  156.4339 C.ar    1  UNL1        0.0174
     11 C         141.3425  141.2808  156.1352 C.ar    1  UNL1        0.0326
     12 N         140.3043  145.5668  155.2390 N.pl3   1  UNL1       -0.2780
     13 C         139.3835  146.3219  156.1511 C.3     1  UNL1        0.0961
     14 C         139.0375  147.7505  155.8523 C.3     1  UNL1        0.0508
     15 C         139.6123  148.4241  154.6416 C.3     1  UNL1        0.1139
     16 O         139.2663  149.8528  154.3429 O.3     1  UNL1       -0.3843
     17 C         140.5332  147.6690  153.7296 C.3     1  UNL1        0.0508
     18 C         140.8792  146.2404  154.0283 C.3     1  UNL1        0.0961
     19 H         138.6652  150.1894  155.0257 H       1  UNL1        0.2103
     20 N         142.3160  137.4695  155.6098 N.am    1  UNL1       -0.2804
     21 C         143.7524  137.0402  155.6587 C.2     1  UNL1        0.2496
     22 O         144.8428  138.0395  155.4089 O.2     1  UNL1       -0.2698
     23 H         141.6003  136.8136  155.7738 H       1  UNL1        0.1552
     24 C         144.0984  135.6115  155.9574 C.2     1  UNL1        0.0580
     25 C         143.0933  134.7200  156.6244 C.2     1  UNL1        0.0047
     26 C         143.4394  133.2914  156.9230 C.ar    1  UNL1        0.0003
     27 C         144.6723  132.9679  157.7138 C.ar    1  UNL1        0.0031
     28 C         145.0184  131.5393  158.0125 C.ar    1  UNL1        0.0372
     29 C         144.1316  130.4341  157.5204 C.ar    1  UNL1        0.1468
     30 C         142.8987  130.7575  156.7296 C.ar    1  UNL1        0.0372
     31 C         142.5526  132.1862  156.4309 C.ar    1  UNL1        0.0031
     32 O         144.4777  129.0055  157.8191 O.3     1  UNL1       -0.4045
     33 C         144.6720  128.5619  159.2388 C.3     1  UNL1        0.5753
     34 F         144.8664  128.1183  160.6584 F       1  UNL1       -0.1328
     35 F         143.2784  129.0077  159.5689 F       1  UNL1       -0.1328
     36 F         146.0656  128.1161  158.9086 F       1  UNL1       -0.1328
@<TRIPOS>BOND
     1     1     2    1
     2     2     3   ar
     3     3     4   ar
     4     4    12    1
     5    12    13    1
     6    13    14    1
     7    14    15    1
     8    15    16    1
     9    15    17    1
    10    17    18    1
    11     4     5   ar
    12     5     6   ar
    13     6     7   ar
    14     7     8   ar
    15     8     9   ar
    16     9    20    1
    17    20    21   am
    18    21    22    2
    19    21    24    1
    20    24    25    2
    21    25    26    1
    22    26    27   ar
    23    27    28   ar
    24    28    29   ar
    25    29    32    1
    26    32    33    1
    27    33    34    1
    28    33    35    1
    29    33    36    1
    30    29    30   ar
    31    30    31   ar
    32     9    10   ar
    33    10    11   ar
    34    11     2   ar
    35    18    12    1
    36    11     6   ar
    37    31    26   ar
    38    16    19    1
    39    20    23    1
@<TRIPOS>MOLECULE
*****
 36 39 0 0 0
SMALL
GASTEIGER

@<TRIPOS>ATOM
      1 C         144.0744  140.2835  158.0135 C.3     1  UNL1        0.0522
      2 C         143.2038  139.4741  157.0987 C.ar    1  UNL1        0.0637
      3 N         143.2494  137.9758  157.1512 N.ar    1  UNL1       -0.2180
      4 C         142.3788  137.1664  156.2363 C.ar    1  UNL1        0.2198
      5 N         141.4627  137.8553  155.2689 N.ar    1  UNL1       -0.2136
      6 C         141.4171  139.3538  155.2163 C.ar    1  UNL1        0.0854
      7 C         140.5009  140.0427  154.2489 C.ar    1  UNL1        0.0205
      8 C         140.4553  141.5411  154.1964 C.ar    1  UNL1        0.0162
      9 C         141.3259  142.3505  155.1112 C.ar    1  UNL1        0.0507
     10 C         142.2420  141.6615  156.0786 C.ar    1  UNL1        0.0174
     11 C         142.2876  140.1632  156.1312 C.ar    1  UNL1        0.0326
     12 N         142.4245  135.6679  156.2889 N.pl3   1  UNL1       -0.2780
     13 C         143.3340  134.9790  157.2626 C.3     1  UNL1        0.0961
     14 C         143.3796  133.4807  157.3151 C.3     1  UNL1        0.0508
     15 C         142.5156  132.6712  156.3940 C.3     1  UNL1        0.1139
     16 O         142.5612  131.1728  156.4466 O.3     1  UNL1       -0.3843
     17 C         141.6061  133.3602  155.4204 C.3     1  UNL1        0.0508
     18 C         141.5605  134.8585  155.3678 C.3     1  UNL1        0.0961
     19 H         143.1954  130.8922  157.1249 H       1  UNL1        0.2103
     20 N         141.2803  143.8489  155.0586 N.am    1  UNL1       -0.2804
     21 C         140.4162  144.6072  156.0221 C.2     1  UNL1        0.2496
     22 O         139.5977  143.8672  157.0381 O.2     1  UNL1       -0.2698
     23 H         141.8175  144.3346  154.3918 H       1  UNL1        0.1552
     24 C         140.3706  146.1057  155.9695 C.2     1  UNL1        0.0580
     25 C         139.2721  146.7966  155.2172 C.2     1  UNL1        0.0047
     26 C         139.2265  148.2950  155.1647 C.ar    1  UNL1        0.0003
     27 C         139.8314  149.0234  154.0012 C.ar    1  UNL1        0.0031
     28 C         139.7858  150.5218  153.9486 C.ar    1  UNL1        0.0372
     29 C         139.1354  151.2918  155.0595 C.ar    1  UNL1        0.1468
     30 C         138.5306  150.5634  156.2229 C.ar    1  UNL1        0.0372
     31 C         138.5761  149.0650  156.2756 C.ar    1  UNL1        0.0031
     32 O         139.0898  152.7901  155.0069 O.3     1  UNL1       -0.4045
     33 C         139.1710  153.4971  153.6864 C.3     1  UNL1        0.5753
     34 F         139.2522  154.2041  152.3660 F       1  UNL1       -0.1328
     35 F         137.7227  153.1971  153.4367 F       1  UNL1       -0.1328
     36 F         140.6193  153.7971  153.9362 F       1  UNL1       -0.1328
@<TRIPOS>BOND
     1     1     2    1
     2     2     3   ar
     3     3     4   ar
     4     4    12    1
     5    12    13    1
     6    13    14    1
     7    14    15    1
     8    15    16    1
     9    15    17    1
    10    17    18    1
    11     4     5   ar
    12     5     6   ar
    13     6     7   ar
    14     7     8   ar
    15     8     9   ar
    16     9    20    1
    17    20    21   am
    18    21    22    2
    19    21    24    1
    20    24    25    2
    21    25    26    1
    22    26    27   ar
    23    27    28   ar
    24    28    29   ar
    25    29    32    1
    26    32    33    1
    27    33    34    1
    28    33    35    1
    29    33    36    1
    30    29    30   ar
    31    30    31   ar
    32     9    10   ar
    33    10    11   ar
    34    11     2   ar
    35    18    12    1
    36    11     6   ar
    37    31    26   ar
    38    16    19    1
    39    20    23    1
@<TRIPOS>MOLECULE
*****
 36 39 0 0 0
SMALL
GASTEIGER

@<TRIPOS>ATOM
      1 C         141.9151  141.6402  158.0147 C.3     1  UNL1        0.0522
      2 C         141.4005  143.0162  158.3180 C.ar    1  UNL1        0.0637
      3 N         141.0978  143.9674  157.1984 N.ar    1  UNL1       -0.2180
      4 C         140.5833  145.3433  157.5017 C.ar    1  UNL1        0.2198
      5 N         140.3714  145.7681  158.9246 N.ar    1  UNL1       -0.2136
      6 C         140.6741  144.8168  160.0443 C.ar    1  UNL1        0.0854
      7 C         140.4622  145.2416  161.4672 C.ar    1  UNL1        0.0205
      8 C         140.7649  144.2904  162.5868 C.ar    1  UNL1        0.0162
      9 C         141.2795  142.9144  162.2834 C.ar    1  UNL1        0.0507
     10 C         141.4914  142.4897  160.8606 C.ar    1  UNL1        0.0174
     11 C         141.1887  143.4409  159.7410 C.ar    1  UNL1        0.0326
     12 N         140.2805  146.2946  156.3820 N.pl3   1  UNL1       -0.2780
     13 C         140.9837  146.1507  155.0649 C.3     1  UNL1        0.0961
     14 C         140.6810  147.1019  153.9453 C.3     1  UNL1        0.0508
     15 C         139.6751  148.1970  154.1428 C.3     1  UNL1        0.1139
     16 O         139.3724  149.1482  153.0231 O.3     1  UNL1       -0.3843
     17 C         138.9720  148.3408  155.4599 C.3     1  UNL1        0.0508
     18 C         139.2747  147.3897  156.5795 C.3     1  UNL1        0.0961
     19 H         139.9087  148.9171  152.2486 H       1  UNL1        0.2103
     20 N         141.5822  141.9632  163.4031 N.am    1  UNL1       -0.2804
     21 C         142.9229  141.9978  164.0749 C.2     1  UNL1        0.2496
     22 O         143.9610  142.9836  163.6270 O.2     1  UNL1       -0.2698
     23 H         140.9009  141.3162  163.6971 H       1  UNL1        0.1552
     24 C         143.2256  141.0466  165.1945 C.2     1  UNL1        0.0580
     25 C         142.2568  140.8909  166.3290 C.2     1  UNL1        0.0047
     26 C         142.5595  139.9398  167.4486 C.ar    1  UNL1        0.0003
     27 C         142.0728  140.2355  168.8363 C.ar    1  UNL1        0.0031
     28 C         142.3755  139.2843  169.9559 C.ar    1  UNL1        0.0372
     29 C         143.1650  138.0374  169.6879 C.ar    1  UNL1        0.1468
     30 C         143.6517  137.7416  168.3003 C.ar    1  UNL1        0.0372
     31 C         143.3490  138.6928  167.1806 C.ar    1  UNL1        0.0031
     32 O         143.4677  137.0862  170.8075 O.3     1  UNL1       -0.4045
     33 C         144.8913  136.7951  171.1801 C.3     1  UNL1        0.5753
     34 F         146.3148  136.5040  171.5527 F       1  UNL1       -0.1328
     35 F         144.9530  138.0813  171.9494 F       1  UNL1       -0.1328
     36 F         144.8296  135.5089  170.4109 F       1  UNL1       -0.1328
@<TRIPOS>BOND
     1     1     2    1
     2     2     3   ar
     3     3     4   ar
     4     4    12    1
     5    12    13    1
     6    13    14    1
     7    14    15    1
     8    15    16    1
     9    15    17    1
    10    17    18    1
    11     4     5   ar
    12     5     6   ar
    13     6     7   ar
    14     7     8   ar
    15     8     9   ar
    16     9    20    1
    17    20    21   am
    18    21    22    2
    19    21    24    1
    20    24    25    2
    21    25    26    1
    22    26    27   ar
    23    27    28   ar
    24    28    29   ar
    25    29    32    1
    26    32    33    1
    27    33    34    1
    28    33    35    1
    29    33    36    1
    30    29    30   ar
    31    30    31   ar
    32     9    10   ar
    33    10    11   ar
    34    11     2   ar
    35    18    12    1
    36    11     6   ar
    37    31    26   ar
    38    16    19    1
    39    20    23    1
