@<TRIPOS>MOLECULE
*****
 35 39 0 0 0
SMALL
GASTEIGER

@<TRIPOS>ATOM
      1 N         138.9518  144.1636  163.3920 N.3     1  UNL1       -0.2720
      2 C         138.1408  142.9801  162.9542 C.3     1  UNL1        0.0768
      3 C         137.9481  141.6677  163.6546 C.3     1  UNL1        0.0434
      4 C         138.5188  141.2147  164.9656 C.ar    1  UNL1       -0.0231
      5 C         138.0742  139.8228  165.3052 C.ar    1  UNL1       -0.0013
      6 C         138.5340  139.1785  166.5793 C.ar    1  UNL1        0.0388
      7 C         139.4384  139.9259  167.5140 C.ar    1  UNL1        0.1643
      8 O         140.0501  139.5525  168.8316 O.2     1  UNL1       -0.4317
      9 C         140.8727  140.7134  169.3065 C.ar    1  UNL1        0.3031
     10 N         140.7695  141.8044  168.2823 N.ar    1  UNL1       -0.2053
     11 C         139.8830  141.3177  167.1744 C.ar    1  UNL1        0.1145
     12 C         139.4232  141.9621  165.9002 C.ar    1  UNL1       -0.0039
     13 C         139.9802  143.3472  165.7545 C.3     1  UNL1        0.0450
     14 C         139.7704  144.3269  164.6382 C.3     1  UNL1        0.0769
     15 C         141.6603  140.7730  170.5817 C.3     1  UNL1        0.4696
     16 F         142.4479  140.8325  171.8570 F       1  UNL1       -0.1619
     17 F         142.8754  141.1973  169.8114 F       1  UNL1       -0.1619
     18 F         140.4452  140.3486  171.3520 F       1  UNL1       -0.1619
     19 C         138.9430  145.3391  162.4603 C.3     1  UNL1        0.0730
     20 C         140.2248  145.8197  161.8471 C.3     1  UNL1        0.0294
     21 C         140.5472  145.4818  160.4216 C.3     1  UNL1        0.0666
     22 S         141.5889  144.4476  160.1132 S.3     1  UNL1       -0.0756
     23 C         143.1257  142.2185  162.8944 C.ar    1  UNL1        0.1740
     24 N         143.9940  143.4382  162.9875 N.ar    1  UNL1       -0.1277
     25 N         143.5240  144.4216  161.9570 N.ar    1  UNL1       -0.1221
     26 C         142.3652  143.8098  161.2270 C.ar    1  UNL1        0.1932
     27 N         142.1191  142.4483  161.8063 N.ar    1  UNL1       -0.2880
     28 C         141.0534  141.4854  161.3735 C.3     1  UNL1        0.1340
     29 C         143.0781  138.9513  167.0422 C.3     1  UNL1        0.0594
     30 C         143.2215  139.4840  165.6473 C.ar    1  UNL1        0.0883
     31 N         143.6275  138.6933  164.4390 N.ar    1  UNL1       -0.2469
     32 C         143.6410  139.6214  163.2607 C.ar    1  UNL1        0.0685
     33 C         143.9907  139.2504  161.8500 C.3     1  UNL1        0.0527
     34 C         143.2434  140.9858  163.7407 C.ar    1  UNL1        0.0799
     35 S         142.9841  140.9008  165.2157 S.2     1  UNL1       -0.0680
@<TRIPOS>BOND
     1    29    30    1
     2    30    31   ar
     3    31    32   ar
     4    32    33    1
     5    32    34   ar
     6    34    23    1
     7    23    24   ar
     8    24    25   ar
     9    25    26   ar
    10    26    22    1
    11    22    21    1
    12    21    20    1
    13    20    19    1
    14    19     1    1
    15     1     2    1
    16     2     3    1
    17     3     4    1
    18     4     5   ar
    19     5     6   ar
    20     6     7   ar
    21     7     8   ar
    22     8     9   ar
    23     9    15    1
    24    15    16    1
    25    15    17    1
    26    15    18    1
    27     9    10   ar
    28    10    11   ar
    29    11    12   ar
    30    12    13    1
    31    13    14    1
    32    26    27   ar
    33    27    28    1
    34    34    35   ar
    35    35    30   ar
    36    27    23   ar
    37    14     1    1
    38    12     4   ar
    39    11     7   ar
@<TRIPOS>MOLECULE
*****
 35 39 0 0 0
SMALL
GASTEIGER

@<TRIPOS>ATOM
      1 N         139.0158  144.1064  163.3812 N.3     1  UNL1       -0.2720
      2 C         138.1706  142.9423  162.9563 C.3     1  UNL1        0.0768
      3 C         137.9568  141.6353  163.6608 C.3     1  UNL1        0.0434
      4 C         138.5354  141.1698  164.9640 C.ar    1  UNL1       -0.0231
      5 C         138.0628  139.7892  165.3114 C.ar    1  UNL1       -0.0013
      6 C         138.5254  139.1350  166.5795 C.ar    1  UNL1        0.0388
      7 C         139.4607  139.8614  167.5002 C.ar    1  UNL1        0.1643
      8 O         140.0822  139.4744  168.8094 O.2     1  UNL1       -0.4317
      9 C         140.9390  140.6158  169.2711 C.ar    1  UNL1        0.3031
     10 N         140.8470  141.7083  168.2473 N.ar    1  UNL1       -0.2053
     11 C         139.9333  141.2420  167.1528 C.ar    1  UNL1        0.1145
     12 C         139.4707  141.8961  165.8847 C.ar    1  UNL1       -0.0039
     13 C         140.0584  143.2675  165.7295 C.3     1  UNL1        0.0450
     14 C         139.8558  144.2511  164.6153 C.3     1  UNL1        0.0769
     15 C         141.7460  140.6576  170.5348 C.3     1  UNL1        0.4696
     16 F         142.5530  140.6993  171.7986 F       1  UNL1       -0.1619
     17 F         143.0085  140.5500  169.7320 F       1  UNL1       -0.1619
     18 F         140.4835  140.7651  171.3376 F       1  UNL1       -0.1619
     19 C         139.0215  145.2812  162.4485 C.3     1  UNL1        0.0730
     20 C         140.3037  145.7249  161.8090 C.3     1  UNL1        0.0294
     21 C         140.7204  145.1512  160.4871 C.3     1  UNL1        0.0666
     22 S         141.7371  144.0496  160.4346 S.3     1  UNL1       -0.0756
     23 C         141.3463  140.7349  162.4161 C.ar    1  UNL1        0.1740
     24 N         140.4361  140.4848  161.2502 N.ar    1  UNL1       -0.1277
     25 N         140.4717  141.6960  160.3662 N.ar    1  UNL1       -0.1221
     26 C         141.4039  142.6947  160.9855 C.ar    1  UNL1        0.1932
     27 N         141.9444  142.1007  162.2524 N.ar    1  UNL1       -0.2880
     28 C         142.9130  142.7573  163.1909 C.3     1  UNL1        0.1340
     29 C         143.2263  138.6555  166.8907 C.3     1  UNL1        0.0594
     30 C         142.4759  138.8301  165.6037 C.ar    1  UNL1        0.0883
     31 N         141.5645  137.8209  164.9706 N.ar    1  UNL1       -0.2469
     32 C         141.0304  138.4116  163.6994 C.ar    1  UNL1        0.0685
     33 C         140.0817  137.7450  162.7478 C.3     1  UNL1        0.0527
     34 C         141.6117  139.7859  163.5469 C.ar    1  UNL1        0.0799
     35 S         142.5050  140.0446  164.7238 S.2     1  UNL1       -0.0680
@<TRIPOS>BOND
     1    29    30    1
     2    30    31   ar
     3    31    32   ar
     4    32    33    1
     5    32    34   ar
     6    34    23    1
     7    23    24   ar
     8    24    25   ar
     9    25    26   ar
    10    26    22    1
    11    22    21    1
    12    21    20    1
    13    20    19    1
    14    19     1    1
    15     1     2    1
    16     2     3    1
    17     3     4    1
    18     4     5   ar
    19     5     6   ar
    20     6     7   ar
    21     7     8   ar
    22     8     9   ar
    23     9    15    1
    24    15    16    1
    25    15    17    1
    26    15    18    1
    27     9    10   ar
    28    10    11   ar
    29    11    12   ar
    30    12    13    1
    31    13    14    1
    32    26    27   ar
    33    27    28    1
    34    34    35   ar
    35    35    30   ar
    36    27    23   ar
    37    14     1    1
    38    12     4   ar
    39    11     7   ar
@<TRIPOS>MOLECULE
*****
 35 39 0 0 0
SMALL
GASTEIGER

@<TRIPOS>ATOM
      1 N         144.1507  142.1911  162.3899 N.3     1  UNL1       -0.2720
      2 C         144.6621  140.7899  162.5493 C.3     1  UNL1        0.0768
      3 C         144.4690  139.8493  163.7018 C.3     1  UNL1        0.0434
      4 C         143.7169  140.0775  164.9793 C.ar    1  UNL1       -0.0231
      5 C         143.7705  138.8716  165.8697 C.ar    1  UNL1       -0.0013
      6 C         143.0794  138.8908  167.2008 C.ar    1  UNL1        0.0388
      7 C         142.3345  140.1159  167.6416 C.ar    1  UNL1        0.1643
      8 O         141.5626  140.4265  168.8897 O.2     1  UNL1       -0.4317
      9 C         141.0318  141.8245  168.7706 C.ar    1  UNL1        0.3031
     10 N         141.4757  142.3778  167.4489 N.ar    1  UNL1       -0.2053
     11 C         142.2808  141.3219  166.7512 C.ar    1  UNL1        0.1145
     12 C         142.9720  141.3027  165.4200 C.ar    1  UNL1       -0.0039
     13 C         142.7954  142.6022  164.6920 C.3     1  UNL1        0.0450
     14 C         143.3200  142.9975  163.3435 C.3     1  UNL1        0.0769
     15 C         140.2028  142.5429  169.7935 C.3     1  UNL1        0.4696
     16 F         139.3738  143.2615  170.8165 F       1  UNL1       -0.1619
     17 F         139.2017  141.4262  169.7665 F       1  UNL1       -0.1619
     18 F         141.2039  143.6597  169.8205 F       1  UNL1       -0.1619
     19 C         144.5188  142.8762  161.1073 C.3     1  UNL1        0.0730
     20 C         143.6050  142.7884  159.9211 C.3     1  UNL1        0.0294
     21 C         142.3515  143.6113  159.8774 C.3     1  UNL1        0.0666
     22 S         141.0325  142.9544  159.5972 S.3     1  UNL1       -0.0756
     23 C         139.1205  141.4552  162.6242 C.ar    1  UNL1        0.1740
     24 N         138.2842  142.6635  162.3227 N.ar    1  UNL1       -0.1277
     25 N         138.8987  143.3721  161.1522 N.ar    1  UNL1       -0.1221
     26 C         140.1147  142.6018  160.7301 C.ar    1  UNL1        0.1932
     27 N         140.2517  141.4172  161.6399 N.ar    1  UNL1       -0.2880
     28 C         141.3306  140.3769  161.5765 C.3     1  UNL1        0.1340
     29 C         138.5371  139.2846  167.4021 C.3     1  UNL1        0.0594
     30 C         138.6013  139.4622  165.9141 C.ar    1  UNL1        0.0883
     31 N         138.3651  138.3941  164.8877 N.ar    1  UNL1       -0.2469
     32 C         138.5308  139.0106  163.5304 C.ar    1  UNL1        0.0685
     33 C         138.3837  138.3025  162.2163 C.3     1  UNL1        0.0527
     34 C         138.8695  140.4599  163.7178 C.ar    1  UNL1        0.0799
     35 S         138.9130  140.7389  165.1910 S.2     1  UNL1       -0.0680
@<TRIPOS>BOND
     1    29    30    1
     2    30    31   ar
     3    31    32   ar
     4    32    33    1
     5    32    34   ar
     6    34    23    1
     7    23    24   ar
     8    24    25   ar
     9    25    26   ar
    10    26    22    1
    11    22    21    1
    12    21    20    1
    13    20    19    1
    14    19     1    1
    15     1     2    1
    16     2     3    1
    17     3     4    1
    18     4     5   ar
    19     5     6   ar
    20     6     7   ar
    21     7     8   ar
    22     8     9   ar
    23     9    15    1
    24    15    16    1
    25    15    17    1
    26    15    18    1
    27     9    10   ar
    28    10    11   ar
    29    11    12   ar
    30    12    13    1
    31    13    14    1
    32    26    27   ar
    33    27    28    1
    34    34    35   ar
    35    35    30   ar
    36    27    23   ar
    37    14     1    1
    38    12     4   ar
    39    11     7   ar
@<TRIPOS>MOLECULE
*****
 35 39 0 0 0
SMALL
GASTEIGER

@<TRIPOS>ATOM
      1 N         139.8696  144.4045  159.6599 N.3     1  UNL1       -0.2720
      2 C         140.0556  145.5398  160.6226 C.3     1  UNL1        0.0768
      3 C         139.9958  145.5144  162.1213 C.3     1  UNL1        0.0434
      4 C         139.7352  144.3478  163.0272 C.ar    1  UNL1       -0.0231
      5 C         139.7622  144.7575  164.4700 C.ar    1  UNL1       -0.0013
      6 C         139.5241  143.7377  165.5438 C.ar    1  UNL1        0.0388
      7 C         139.2589  142.3081  165.1751 C.ar    1  UNL1        0.1643
      8 O         138.9909  141.0898  166.0080 O.2     1  UNL1       -0.4317
      9 C         138.7981  139.9270  165.0801 C.ar    1  UNL1        0.3031
     10 N         138.9471  140.4268  163.6736 N.ar    1  UNL1       -0.2053
     11 C         139.2318  141.8984  163.7323 C.ar    1  UNL1        0.1145
     12 C         139.4700  142.9182  162.6584 C.ar    1  UNL1       -0.0039
     13 C         139.3999  142.3023  161.2925 C.3     1  UNL1        0.0450
     14 C         139.5778  142.9638  159.9581 C.3     1  UNL1        0.0769
     15 C         138.5075  138.5129  165.4871 C.3     1  UNL1        0.4696
     16 F         138.2169  137.0987  165.8942 F       1  UNL1       -0.1619
     17 F         138.5621  138.0879  164.0496 F       1  UNL1       -0.1619
     18 F         138.4530  138.9379  166.9247 F       1  UNL1       -0.1619
     19 C         139.9915  144.7569  158.2070 C.3     1  UNL1        0.0730
     20 C         141.0105  144.0655  157.3505 C.3     1  UNL1        0.0294
     21 C         142.4731  144.2950  157.5920 C.3     1  UNL1        0.0666
     22 S         143.3126  143.2095  158.1977 S.3     1  UNL1       -0.0756
     23 C         143.2825  141.8348  161.8275 C.ar    1  UNL1        0.1740
     24 N         143.0725  143.3001  162.0707 N.ar    1  UNL1       -0.1277
     25 N         143.0582  143.9933  160.7406 N.ar    1  UNL1       -0.1221
     26 C         143.2594  142.9566  159.6753 C.ar    1  UNL1        0.1932
     27 N         143.3979  141.6226  160.3471 N.ar    1  UNL1       -0.2880
     28 C         143.6141  140.3072  159.6592 C.3     1  UNL1        0.1340
     29 C         142.0754  137.7250  164.9151 C.3     1  UNL1        0.0594
     30 C         142.8079  138.8800  164.2991 C.ar    1  UNL1        0.0883
     31 N         144.1649  139.3780  164.6998 N.ar    1  UNL1       -0.2469
     32 C         144.5079  140.5455  163.8227 C.ar    1  UNL1        0.0685
     33 C         145.7736  141.3485  163.8785 C.3     1  UNL1        0.0527
     34 C         143.3628  140.7691  162.8799 C.ar    1  UNL1        0.0799
     35 S         142.3122  139.7397  163.1744 S.2     1  UNL1       -0.0680
@<TRIPOS>BOND
     1    29    30    1
     2    30    31   ar
     3    31    32   ar
     4    32    33    1
     5    32    34   ar
     6    34    23    1
     7    23    24   ar
     8    24    25   ar
     9    25    26   ar
    10    26    22    1
    11    22    21    1
    12    21    20    1
    13    20    19    1
    14    19     1    1
    15     1     2    1
    16     2     3    1
    17     3     4    1
    18     4     5   ar
    19     5     6   ar
    20     6     7   ar
    21     7     8   ar
    22     8     9   ar
    23     9    15    1
    24    15    16    1
    25    15    17    1
    26    15    18    1
    27     9    10   ar
    28    10    11   ar
    29    11    12   ar
    30    12    13    1
    31    13    14    1
    32    26    27   ar
    33    27    28    1
    34    34    35   ar
    35    35    30   ar
    36    27    23   ar
    37    14     1    1
    38    12     4   ar
    39    11     7   ar
@<TRIPOS>MOLECULE
*****
 35 39 0 0 0
SMALL
GASTEIGER

@<TRIPOS>ATOM
      1 N         144.3610  141.9669  162.5877 N.3     1  UNL1       -0.2720
      2 C         144.7662  140.5369  162.7907 C.3     1  UNL1        0.0768
      3 C         144.4784  139.6401  163.9582 C.3     1  UNL1        0.0434
      4 C         143.7144  139.9517  165.2107 C.ar    1  UNL1       -0.0231
      5 C         143.6597  138.7664  166.1285 C.ar    1  UNL1       -0.0013
      6 C         142.9401  138.8664  167.4408 C.ar    1  UNL1        0.0388
      7 C         142.2751  140.1518  167.8355 C.ar    1  UNL1        0.1643
      8 O         141.4980  140.5462  169.0563 O.2     1  UNL1       -0.4317
      9 C         141.0723  141.9753  168.8932 C.ar    1  UNL1        0.3031
     10 N         141.5864  142.4641  167.5714 N.ar    1  UNL1       -0.2053
     11 C         142.3298  141.3370  166.9177 C.ar    1  UNL1        0.1145
     12 C         143.0494  141.2370  165.6054 C.ar    1  UNL1       -0.0039
     13 C         142.9842  142.5282  164.8449 C.3     1  UNL1        0.0450
     14 C         143.5680  142.8530  163.5018 C.3     1  UNL1        0.0769
     15 C         140.2730  142.7752  169.8786 C.3     1  UNL1        0.4696
     16 F         139.4737  143.5752  170.8641 F       1  UNL1       -0.1619
     17 F         139.2471  141.6823  169.9335 F       1  UNL1       -0.1619
     18 F         141.2990  143.8681  169.8237 F       1  UNL1       -0.1619
     19 C         144.8080  142.5934  161.3001 C.3     1  UNL1        0.0730
     20 C         143.9491  142.4847  160.0753 C.3     1  UNL1        0.0294
     21 C         143.9274  141.2097  159.2852 C.3     1  UNL1        0.0666
     22 S         142.6272  140.5052  159.0339 S.3     1  UNL1       -0.0756
     23 C         140.5955  139.3405  162.1292 C.ar    1  UNL1        0.1740
     24 N         141.1361  138.0338  161.6289 N.ar    1  UNL1       -0.1277
     25 N         141.9629  138.3111  160.4085 N.ar    1  UNL1       -0.1221
     26 C         141.9334  139.7892  160.1546 C.ar    1  UNL1        0.1932
     27 N         141.0883  140.4253  161.2180 N.ar    1  UNL1       -0.2880
     28 C         140.7885  141.8894  161.3476 C.3     1  UNL1        0.1340
     29 C         138.8174  139.3402  167.1011 C.3     1  UNL1        0.0594
     30 C         138.8992  139.5290  165.6152 C.ar    1  UNL1        0.0883
     31 N         137.8285  140.1100  164.7400 N.ar    1  UNL1       -0.2469
     32 C         138.3335  140.1101  163.3277 C.ar    1  UNL1        0.0685
     33 C         137.5869  140.6043  162.1243 C.3     1  UNL1        0.0527
     34 C         139.7165  139.5292  163.3299 C.ar    1  UNL1        0.0799
     35 S         140.0661  139.1701  164.7438 S.2     1  UNL1       -0.0680
@<TRIPOS>BOND
     1    29    30    1
     2    30    31   ar
     3    31    32   ar
     4    32    33    1
     5    32    34   ar
     6    34    23    1
     7    23    24   ar
     8    24    25   ar
     9    25    26   ar
    10    26    22    1
    11    22    21    1
    12    21    20    1
    13    20    19    1
    14    19     1    1
    15     1     2    1
    16     2     3    1
    17     3     4    1
    18     4     5   ar
    19     5     6   ar
    20     6     7   ar
    21     7     8   ar
    22     8     9   ar
    23     9    15    1
    24    15    16    1
    25    15    17    1
    26    15    18    1
    27     9    10   ar
    28    10    11   ar
    29    11    12   ar
    30    12    13    1
    31    13    14    1
    32    26    27   ar
    33    27    28    1
    34    34    35   ar
    35    35    30   ar
    36    27    23   ar
    37    14     1    1
    38    12     4   ar
    39    11     7   ar
@<TRIPOS>MOLECULE
*****
 35 39 0 0 0
SMALL
GASTEIGER

@<TRIPOS>ATOM
      1 N         139.2945  141.8258  158.9386 N.3     1  UNL1       -0.2720
      2 C         140.4841  140.9863  158.5775 C.3     1  UNL1        0.0768
      3 C         141.1304  139.8897  159.3711 C.3     1  UNL1        0.0434
      4 C         140.7468  139.3617  160.7216 C.ar    1  UNL1       -0.0231
      5 C         141.6610  138.2551  161.1573 C.ar    1  UNL1       -0.0013
      6 C         141.4504  137.5866  162.4835 C.ar    1  UNL1        0.0388
      7 C         140.3258  138.0248  163.3741 C.ar    1  UNL1        0.1643
      8 O         139.8751  137.5564  164.7259 O.2     1  UNL1       -0.4317
      9 C         138.6824  138.3736  165.1258 C.ar    1  UNL1        0.3031
     10 N         138.3960  139.3470  164.0211 N.ar    1  UNL1       -0.2053
     11 C         139.4116  139.1314  162.9384 C.ar    1  UNL1        0.1145
     12 C         139.6222  139.7999  161.6122 C.ar    1  UNL1       -0.0039
     13 C         138.6033  140.8743  161.3722 C.3     1  UNL1        0.0450
     14 C         138.4576  141.7759  160.1823 C.3     1  UNL1        0.0769
     15 C         137.9116  138.2407  166.4057 C.3     1  UNL1        0.4696
     16 F         137.1407  138.1079  167.6856 F       1  UNL1       -0.1619
     17 F         137.9522  136.7470  166.2750 F       1  UNL1       -0.1619
     18 F         137.8709  139.7345  166.5363 F       1  UNL1       -0.1619
     19 C         138.8884  142.8506  157.9213 C.3     1  UNL1        0.0730
     20 C         139.9176  143.7644  157.3251 C.3     1  UNL1        0.0294
     21 C         140.1468  145.1236  157.9171 C.3     1  UNL1        0.0666
     22 S         141.0903  145.2894  159.0713 S.3     1  UNL1       -0.0756
     23 C         140.2532  144.3863  162.7522 C.ar    1  UNL1        0.1740
     24 N         139.3545  145.5670  162.5319 N.ar    1  UNL1       -0.1277
     25 N         139.5588  146.0489  161.1262 N.ar    1  UNL1       -0.1221
     26 C         140.5836  145.1662  160.4778 C.ar    1  UNL1        0.1932
     27 N         141.0127  144.1386  161.4827 N.ar    1  UNL1       -0.2880
     28 C         142.0240  143.0538  161.2577 C.3     1  UNL1        0.1340
     29 C         142.2540  142.0218  167.0285 C.3     1  UNL1        0.0594
     30 C         141.2912  142.5058  165.9851 C.ar    1  UNL1        0.0883
     31 N         139.8158  142.2370  165.9544 N.ar    1  UNL1       -0.2469
     32 C         139.2474  142.9086  164.7396 C.ar    1  UNL1        0.0685
     33 C         137.8077  142.8982  164.3187 C.3     1  UNL1        0.0527
     34 C         140.3714  143.5927  164.0195 C.ar    1  UNL1        0.0799
     35 S         141.6346  143.3437  164.7893 S.2     1  UNL1       -0.0680
@<TRIPOS>BOND
     1    29    30    1
     2    30    31   ar
     3    31    32   ar
     4    32    33    1
     5    32    34   ar
     6    34    23    1
     7    23    24   ar
     8    24    25   ar
     9    25    26   ar
    10    26    22    1
    11    22    21    1
    12    21    20    1
    13    20    19    1
    14    19     1    1
    15     1     2    1
    16     2     3    1
    17     3     4    1
    18     4     5   ar
    19     5     6   ar
    20     6     7   ar
    21     7     8   ar
    22     8     9   ar
    23     9    15    1
    24    15    16    1
    25    15    17    1
    26    15    18    1
    27     9    10   ar
    28    10    11   ar
    29    11    12   ar
    30    12    13    1
    31    13    14    1
    32    26    27   ar
    33    27    28    1
    34    34    35   ar
    35    35    30   ar
    36    27    23   ar
    37    14     1    1
    38    12     4   ar
    39    11     7   ar
@<TRIPOS>MOLECULE
*****
 35 39 0 0 0
SMALL
GASTEIGER

@<TRIPOS>ATOM
      1 N         140.7372  143.6604  159.7594 N.3     1  UNL1       -0.2720
      2 C         140.9241  144.8422  160.6643 C.3     1  UNL1        0.0768
      3 C         140.7217  144.9250  162.1483 C.3     1  UNL1        0.0434
      4 C         140.2824  143.8467  163.0938 C.ar    1  UNL1       -0.0231
      5 C         140.2070  144.3519  164.5042 C.ar    1  UNL1       -0.0013
      6 C         139.7862  143.4296  165.6098 C.ar    1  UNL1        0.0388
      7 C         139.4408  142.0020  165.3051 C.ar    1  UNL1        0.1643
      8 O         138.9969  140.8679  166.1806 O.2     1  UNL1       -0.4317
      9 C         138.7978  139.6617  165.3113 C.ar    1  UNL1        0.3031
     10 N         139.1188  140.0504  163.8985 N.ar    1  UNL1       -0.2053
     11 C         139.5162  141.4968  163.8947 C.ar    1  UNL1        0.1145
     12 C         139.9370  142.4191  162.7891 C.ar    1  UNL1       -0.0039
     13 C         139.9456  141.7174  161.4634 C.3     1  UNL1        0.0450
     14 C         140.3017  142.2699  160.1151 C.3     1  UNL1        0.0769
     15 C         138.3555  138.3050  165.7736 C.3     1  UNL1        0.4696
     16 F         137.9131  136.9483  166.2360 F       1  UNL1       -0.1619
     17 F         139.0851  137.6755  164.6241 F       1  UNL1       -0.1619
     18 F         137.6259  138.9346  166.9231 F       1  UNL1       -0.1619
     19 C         141.0237  143.9013  158.3069 C.3     1  UNL1        0.0730
     20 C         141.8033  142.8911  157.5186 C.3     1  UNL1        0.0294
     21 C         143.2740  143.0859  157.2963 C.3     1  UNL1        0.0666
     22 S         144.2531  142.6799  158.3576 S.3     1  UNL1       -0.0756
     23 C         143.6154  139.8261  160.9100 C.ar    1  UNL1        0.1740
     24 N         143.8603  139.0427  159.6544 N.ar    1  UNL1       -0.1277
     25 N         144.1290  140.0164  158.5455 N.ar    1  UNL1       -0.1221
     26 C         144.0502  141.4016  159.1157 C.ar    1  UNL1        0.1932
     27 N         143.7328  141.2839  160.5769 N.ar    1  UNL1       -0.2880
     28 C         143.5626  142.4240  161.5368 C.3     1  UNL1        0.1340
     29 C         143.9507  138.5699  166.0276 C.3     1  UNL1        0.0594
     30 C         143.4615  138.6750  164.6135 C.ar    1  UNL1        0.0883
     31 N         142.2051  138.0640  164.0676 N.ar    1  UNL1       -0.2469
     32 C         142.1098  138.4208  162.6138 C.ar    1  UNL1        0.0685
     33 C         141.0101  138.0171  161.6770 C.3     1  UNL1        0.0527
     34 C         143.3074  139.2524  162.2611 C.ar    1  UNL1        0.0799
     35 S         144.1427  139.4094  163.4971 S.2     1  UNL1       -0.0680
@<TRIPOS>BOND
     1    29    30    1
     2    30    31   ar
     3    31    32   ar
     4    32    33    1
     5    32    34   ar
     6    34    23    1
     7    23    24   ar
     8    24    25   ar
     9    25    26   ar
    10    26    22    1
    11    22    21    1
    12    21    20    1
    13    20    19    1
    14    19     1    1
    15     1     2    1
    16     2     3    1
    17     3     4    1
    18     4     5   ar
    19     5     6   ar
    20     6     7   ar
    21     7     8   ar
    22     8     9   ar
    23     9    15    1
    24    15    16    1
    25    15    17    1
    26    15    18    1
    27     9    10   ar
    28    10    11   ar
    29    11    12   ar
    30    12    13    1
    31    13    14    1
    32    26    27   ar
    33    27    28    1
    34    34    35   ar
    35    35    30   ar
    36    27    23   ar
    37    14     1    1
    38    12     4   ar
    39    11     7   ar
@<TRIPOS>MOLECULE
*****
 35 39 0 0 0
SMALL
GASTEIGER

@<TRIPOS>ATOM
      1 N         144.3681  142.1795  162.4886 N.3     1  UNL1       -0.2720
      2 C         144.7838  140.7441  162.6200 C.3     1  UNL1        0.0768
      3 C         144.5106  139.7907  163.7454 C.3     1  UNL1        0.0434
      4 C         143.7544  140.0370  165.0171 C.ar    1  UNL1       -0.0231
      5 C         143.7143  138.8089  165.8775 C.ar    1  UNL1       -0.0013
      6 C         143.0044  138.8414  167.1984 C.ar    1  UNL1        0.0388
      7 C         142.3345  140.1020  167.6591 C.ar    1  UNL1        0.1643
      8 O         141.5645  140.4326  168.9032 O.2     1  UNL1       -0.4317
      9 C         141.1287  141.8650  168.8117 C.ar    1  UNL1        0.3031
     10 N         141.6293  142.4197  167.5111 N.ar    1  UNL1       -0.2053
     11 C         142.3746  141.3301  166.7987 C.ar    1  UNL1        0.1145
     12 C         143.0846  141.2976  165.4778 C.ar    1  UNL1       -0.0039
     13 C         143.0055  142.6233  164.7803 C.3     1  UNL1        0.0450
     14 C         143.5767  143.0156  163.4500 C.3     1  UNL1        0.0769
     15 C         140.3320  142.6116  169.8403 C.3     1  UNL1        0.4696
     16 F         139.5355  143.3583  170.8689 F       1  UNL1       -0.1619
     17 F         139.2729  141.5507  169.7900 F       1  UNL1       -0.1619
     18 F         141.3913  143.6725  169.8905 F       1  UNL1       -0.1619
     19 C         144.8012  142.8697  161.2292 C.3     1  UNL1        0.0730
     20 C         144.7535  142.1399  159.9196 C.3     1  UNL1        0.0294
     21 C         143.9227  142.6766  158.7918 C.3     1  UNL1        0.0666
     22 S         142.4505  142.3934  158.7441 S.3     1  UNL1       -0.0756
     23 C         140.3216  142.1810  161.9827 C.ar    1  UNL1        0.1740
     24 N         140.8444  140.7782  161.8869 N.ar    1  UNL1       -0.1277
     25 N         141.7054  140.6871  160.6621 N.ar    1  UNL1       -0.1221
     26 C         141.7149  142.0335  160.0009 C.ar    1  UNL1        0.1932
     27 N         140.8597  142.9567  160.8170 N.ar    1  UNL1       -0.2880
     28 C         140.5898  144.4020  160.5198 C.3     1  UNL1        0.1340
     29 C         138.3956  145.1263  165.9192 C.3     1  UNL1        0.0594
     30 C         138.5341  144.0682  164.8651 C.ar    1  UNL1        0.0883
     31 N         137.5276  143.0019  164.5487 N.ar    1  UNL1       -0.2469
     32 C         138.0747  142.1652  163.4304 C.ar    1  UNL1        0.0685
     33 C         137.3964  140.9863  162.7979 C.3     1  UNL1        0.0527
     34 C         139.4193  142.7143  163.0557 C.ar    1  UNL1        0.0799
     35 S         139.7032  143.8904  163.9424 S.2     1  UNL1       -0.0680
@<TRIPOS>BOND
     1    29    30    1
     2    30    31   ar
     3    31    32   ar
     4    32    33    1
     5    32    34   ar
     6    34    23    1
     7    23    24   ar
     8    24    25   ar
     9    25    26   ar
    10    26    22    1
    11    22    21    1
    12    21    20    1
    13    20    19    1
    14    19     1    1
    15     1     2    1
    16     2     3    1
    17     3     4    1
    18     4     5   ar
    19     5     6   ar
    20     6     7   ar
    21     7     8   ar
    22     8     9   ar
    23     9    15    1
    24    15    16    1
    25    15    17    1
    26    15    18    1
    27     9    10   ar
    28    10    11   ar
    29    11    12   ar
    30    12    13    1
    31    13    14    1
    32    26    27   ar
    33    27    28    1
    34    34    35   ar
    35    35    30   ar
    36    27    23   ar
    37    14     1    1
    38    12     4   ar
    39    11     7   ar
@<TRIPOS>MOLECULE
*****
 35 39 0 0 0
SMALL
GASTEIGER

@<TRIPOS>ATOM
      1 N         144.3707  141.8721  161.4055 N.3     1  UNL1       -0.2720
      2 C         144.0351  140.4112  161.3467 C.3     1  UNL1        0.0768
      3 C         143.6039  139.5051  162.4617 C.3     1  UNL1        0.0434
      4 C         143.4019  139.8359  163.9106 C.ar    1  UNL1       -0.0231
      5 C         142.9647  138.6323  164.6918 C.ar    1  UNL1       -0.0013
      6 C         142.7067  138.7474  166.1649 C.ar    1  UNL1        0.0388
      7 C         142.8859  140.0661  166.8570 C.ar    1  UNL1        0.1643
      8 O         142.7076  140.4814  168.2872 O.2     1  UNL1       -0.4317
      9 C         143.0345  141.9418  168.3901 C.ar    1  UNL1        0.3031
     10 N         143.4149  142.4290  167.0233 N.ar    1  UNL1       -0.2053
     11 C         143.3231  141.2697  166.0758 C.ar    1  UNL1        0.1145
     12 C         143.5811  141.1546  164.6027 C.ar    1  UNL1       -0.0039
     13 C         144.0066  142.4682  164.0166 C.3     1  UNL1        0.0450
     14 C         144.3580  142.7874  162.5937 C.3     1  UNL1        0.0769
     15 C         142.9891  142.7696  169.6401 C.3     1  UNL1        0.4696
     16 F         142.9437  143.5974  170.8902 F       1  UNL1       -0.1619
     17 F         141.5461  143.0850  169.3788 F       1  UNL1       -0.1619
     18 F         144.4321  142.4542  169.9014 F       1  UNL1       -0.1619
     19 C         144.7720  142.5005  160.1040 C.3     1  UNL1        0.0730
     20 C         143.8376  142.4589  158.9314 C.3     1  UNL1        0.0294
     21 C         142.8975  143.6006  158.6806 C.3     1  UNL1        0.0666
     22 S         141.4682  143.5067  159.1258 S.3     1  UNL1       -0.0756
     23 C         140.4785  142.3803  162.7060 C.ar    1  UNL1        0.1740
     24 N         140.8180  143.8227  162.9393 N.ar    1  UNL1       -0.1277
     25 N         141.2300  144.4202  161.6266 N.ar    1  UNL1       -0.1221
     26 C         141.1452  143.3471  160.5819 C.ar    1  UNL1        0.1932
     27 N         140.6807  142.0865  161.2490 N.ar    1  UNL1       -0.2880
     28 C         140.4576  140.7640  160.5771 C.3     1  UNL1        0.1340
     29 C         138.8360  137.9446  165.0527 C.3     1  UNL1        0.0594
     30 C         139.2627  139.3646  164.8254 C.ar    1  UNL1        0.0883
     31 N         139.3544  140.4358  165.8714 N.ar    1  UNL1       -0.2469
     32 C         139.8210  141.6959  165.2048 C.ar    1  UNL1        0.0685
     33 C         140.0506  143.0165  165.8779 C.3     1  UNL1        0.0527
     34 C         140.0177  141.4035  163.7467 C.ar    1  UNL1        0.0799
     35 S         139.6726  139.9626  163.5123 S.2     1  UNL1       -0.0680
@<TRIPOS>BOND
     1    29    30    1
     2    30    31   ar
     3    31    32   ar
     4    32    33    1
     5    32    34   ar
     6    34    23    1
     7    23    24   ar
     8    24    25   ar
     9    25    26   ar
    10    26    22    1
    11    22    21    1
    12    21    20    1
    13    20    19    1
    14    19     1    1
    15     1     2    1
    16     2     3    1
    17     3     4    1
    18     4     5   ar
    19     5     6   ar
    20     6     7   ar
    21     7     8   ar
    22     8     9   ar
    23     9    15    1
    24    15    16    1
    25    15    17    1
    26    15    18    1
    27     9    10   ar
    28    10    11   ar
    29    11    12   ar
    30    12    13    1
    31    13    14    1
    32    26    27   ar
    33    27    28    1
    34    34    35   ar
    35    35    30   ar
    36    27    23   ar
    37    14     1    1
    38    12     4   ar
    39    11     7   ar
