@<TRIPOS>MOLECULE
*****
 32 35 0 0 0
SMALL
GASTEIGER

@<TRIPOS>ATOM
      1 C         137.9896  138.8524  161.9443 C.3     1  UNL1        0.0722
      2 N         138.3815  139.1348  163.3644 N.3     1  UNL1       -0.2727
      3 C         138.2793  140.5292  163.9076 C.3     1  UNL1        0.0725
      4 C         138.6712  140.8116  165.3277 C.3     1  UNL1        0.0234
      5 C         139.1654  139.6994  166.2046 C.3     1  UNL1        0.0464
      6 C         139.2677  138.3051  165.6615 C.3     1  UNL1        0.0234
      7 C         138.8757  138.0227  164.2414 C.3     1  UNL1        0.0725
      8 C         139.5574  139.9818  167.6247 C.ar    1  UNL1        0.1003
      9 N         138.8084  139.5466  168.8493 N.ar    1  UNL1       -0.0814
     10 O         139.5553  140.0448  170.0509 O.2     1  UNL1       -0.3536
     11 C         140.7659  140.7879  169.5690 C.ar    1  UNL1        0.1787
     12 C         141.8672  141.4950  170.3019 C.ar    1  UNL1        0.0698
     13 C         142.9698  142.1631  169.5352 C.ar    1  UNL1        0.1433
     14 F         144.0712  142.8702  170.2681 F       1  UNL1       -0.2041
     15 C         142.9711  142.1242  168.0357 C.ar    1  UNL1        0.0299
     16 C         141.8698  141.4171  167.3029 C.ar    1  UNL1        0.0067
     17 C         140.7672  140.7490  168.0695 C.ar    1  UNL1        0.0540
     18 C         137.5919  139.9793  161.0378 C.3     1  UNL1        0.0212
     19 C         138.6413  140.7415  160.2840 C.3     1  UNL1        0.0488
     20 C         138.4247  142.1883  159.9530 C.3     1  UNL1        0.2054
     21 O         137.7581  143.0933  160.9463 O.3     1  UNL1       -0.4755
     22 C         140.7743  144.0166  163.3546 C.ar    1  UNL1        0.0564
     23 C         140.0335  144.5479  164.5458 C.ar    1  UNL1        0.0047
     24 C         138.5342  144.5944  164.5372 C.ar    1  UNL1        0.0033
     25 C         137.7758  144.1095  163.3373 C.ar    1  UNL1        0.0369
     26 C         138.5166  143.5782  162.1462 C.ar    1  UNL1        0.1387
     27 C         140.0158  143.5317  162.1548 C.ar    1  UNL1        0.0414
     28 C         144.4959  143.2537  164.5024 C.3     1  UNL1        0.1109
     29 N         142.9966  143.3001  164.4939 N.am    1  UNL1       -0.2992
     30 C         142.2736  143.9701  163.3633 C.2     1  UNL1        0.2460
     31 O         143.0497  144.5938  162.2413 O.2     1  UNL1       -0.2701
     32 H         142.4873  142.8908  165.2302 H       1  UNL1        0.1498
@<TRIPOS>BOND
     1    28    29    1
     2    29    30   am
     3    30    31    2
     4    30    22    1
     5    22    23   ar
     6    23    24   ar
     7    24    25   ar
     8    25    26   ar
     9    26    21    1
    10    21    20    1
    11    20    19    1
    12    19    18    1
    13    18     1    1
    14     1     2    1
    15     2     3    1
    16     3     4    1
    17     4     5    1
    18     5     8    1
    19     8     9   ar
    20     9    10   ar
    21    10    11   ar
    22    11    12   ar
    23    12    13   ar
    24    13    14    1
    25    13    15   ar
    26    15    16   ar
    27    16    17   ar
    28     5     6    1
    29     6     7    1
    30    26    27   ar
    31    27    22   ar
    32     7     2    1
    33    17     8   ar
    34    17    11   ar
    35    29    32    1
@<TRIPOS>MOLECULE
*****
 32 35 0 0 0
SMALL
GASTEIGER

@<TRIPOS>ATOM
      1 C         137.6325  140.9185  162.0264 C.3     1  UNL1        0.0722
      2 N         138.1950  140.8012  163.4120 N.3     1  UNL1       -0.2727
      3 C         138.0205  139.5289  164.1871 C.3     1  UNL1        0.0725
      4 C         138.5830  139.4116  165.5726 C.3     1  UNL1        0.0234
      5 C         139.3201  140.5667  166.1832 C.3     1  UNL1        0.0464
      6 C         139.4945  141.8389  165.4081 C.3     1  UNL1        0.0234
      7 C         138.9320  141.9562  164.0225 C.3     1  UNL1        0.0725
      8 C         139.8826  140.4494  167.5688 C.ar    1  UNL1        0.1003
      9 N         139.2682  139.6922  168.7086 N.ar    1  UNL1       -0.0814
     10 O         140.1642  139.8435  169.9020 O.2     1  UNL1       -0.3536
     11 C         141.3323  140.6942  169.4998 C.ar    1  UNL1        0.1787
     12 C         142.5320  141.1762  170.2603 C.ar    1  UNL1        0.0698
     13 C         143.5576  142.0326  169.5788 C.ar    1  UNL1        0.1433
     14 F         144.7574  142.5147  170.3393 F       1  UNL1       -0.2041
     15 C         143.3836  142.4071  168.1367 C.ar    1  UNL1        0.0299
     16 C         142.1839  141.9251  167.3762 C.ar    1  UNL1        0.0067
     17 C         141.1583  141.0686  168.0577 C.ar    1  UNL1        0.0540
     18 C         138.4786  140.5607  160.8407 C.3     1  UNL1        0.0212
     19 C         138.5825  139.1314  160.3975 C.3     1  UNL1        0.0488
     20 C         139.8765  138.3894  160.5557 C.3     1  UNL1        0.2054
     21 O         140.1392  137.5970  161.8020 O.3     1  UNL1       -0.4755
     22 C         142.4310  140.1245  163.8291 C.ar    1  UNL1        0.0564
     23 C         142.7175  139.3204  165.0626 C.ar    1  UNL1        0.0047
     24 C         142.1446  137.9419  165.2091 C.ar    1  UNL1        0.0033
     25 C         141.2852  137.3674  164.1223 C.ar    1  UNL1        0.0369
     26 C         140.9986  138.1715  162.8888 C.ar    1  UNL1        0.1387
     27 C         141.5715  139.5500  162.7423 C.ar    1  UNL1        0.0414
     28 C         142.9244  143.8711  162.6168 C.3     1  UNL1        0.1109
     29 N         142.3514  142.4925  162.7633 N.am    1  UNL1       -0.2992
     30 C         143.0039  141.5030  163.6826 C.2     1  UNL1        0.2460
     31 O         144.2294  141.8919  164.4553 O.2     1  UNL1       -0.2701
     32 H         141.5471  142.2373  162.2561 H       1  UNL1        0.1498
@<TRIPOS>BOND
     1    28    29    1
     2    29    30   am
     3    30    31    2
     4    30    22    1
     5    22    23   ar
     6    23    24   ar
     7    24    25   ar
     8    25    26   ar
     9    26    21    1
    10    21    20    1
    11    20    19    1
    12    19    18    1
    13    18     1    1
    14     1     2    1
    15     2     3    1
    16     3     4    1
    17     4     5    1
    18     5     8    1
    19     8     9   ar
    20     9    10   ar
    21    10    11   ar
    22    11    12   ar
    23    12    13   ar
    24    13    14    1
    25    13    15   ar
    26    15    16   ar
    27    16    17   ar
    28     5     6    1
    29     6     7    1
    30    26    27   ar
    31    27    22   ar
    32     7     2    1
    33    17     8   ar
    34    17    11   ar
    35    29    32    1
@<TRIPOS>MOLECULE
*****
 32 35 0 0 0
SMALL
GASTEIGER

@<TRIPOS>ATOM
      1 C         141.9493  143.3204  161.1258 C.3     1  UNL1        0.0722
      2 N         142.1359  142.5308  162.3874 N.3     1  UNL1       -0.2727
      3 C         142.4742  143.2333  163.6688 C.3     1  UNL1        0.0725
      4 C         142.6608  142.4437  164.9304 C.3     1  UNL1        0.0234
      5 C         142.5091  140.9514  164.9106 C.3     1  UNL1        0.0464
      6 C         142.1709  140.2490  163.6292 C.3     1  UNL1        0.0234
      7 C         141.9843  141.0386  162.3676 C.3     1  UNL1        0.0725
      8 C         142.6957  140.1618  166.1722 C.ar    1  UNL1        0.1003
      9 N         143.5688  138.9529  166.3347 N.ar    1  UNL1       -0.0814
     10 O         143.4547  138.4864  167.7558 O.2     1  UNL1       -0.3536
     11 C         142.5110  139.4069  168.4715 C.ar    1  UNL1        0.1787
     12 C         142.0183  139.4361  169.8879 C.ar    1  UNL1        0.0698
     13 C         141.0565  140.5006  170.3256 C.ar    1  UNL1        0.1433
     14 F         140.5637  140.5298  171.7421 F       1  UNL1       -0.2041
     15 C         140.5874  141.5360  169.3469 C.ar    1  UNL1        0.0299
     16 C         141.0802  141.5069  167.9305 C.ar    1  UNL1        0.0067
     17 C         142.0420  140.4424  167.4928 C.ar    1  UNL1        0.0540
     18 C         141.7789  144.8093  161.1911 C.3     1  UNL1        0.0212
     19 C         140.5389  145.4471  160.6382 C.3     1  UNL1        0.0488
     20 C         139.6278  146.2232  161.5424 C.3     1  UNL1        0.2054
     21 O         138.4244  145.5596  162.1436 O.3     1  UNL1       -0.4755
     22 C         138.5512  141.8437  163.5312 C.ar    1  UNL1        0.0564
     23 C         138.9411  142.0874  164.9589 C.ar    1  UNL1        0.0047
     24 C         139.1588  143.4885  165.4482 C.ar    1  UNL1        0.0033
     25 C         138.9866  144.6460  164.5098 C.ar    1  UNL1        0.0369
     26 C         138.5967  144.4022  163.0820 C.ar    1  UNL1        0.1387
     27 C         138.3789  143.0011  162.5927 C.ar    1  UNL1        0.0414
     28 C         138.6497  137.8809  163.3387 C.3     1  UNL1        0.1109
     29 N         138.8675  139.2821  163.8281 N.am    1  UNL1       -0.2992
     30 C         138.3335  140.4425  163.0419 C.2     1  UNL1        0.2460
     31 O         137.5817  140.2020  161.7663 O.2     1  UNL1       -0.2701
     32 H         139.3608  139.4400  164.6653 H       1  UNL1        0.1498
@<TRIPOS>BOND
     1    28    29    1
     2    29    30   am
     3    30    31    2
     4    30    22    1
     5    22    23   ar
     6    23    24   ar
     7    24    25   ar
     8    25    26   ar
     9    26    21    1
    10    21    20    1
    11    20    19    1
    12    19    18    1
    13    18     1    1
    14     1     2    1
    15     2     3    1
    16     3     4    1
    17     4     5    1
    18     5     8    1
    19     8     9   ar
    20     9    10   ar
    21    10    11   ar
    22    11    12   ar
    23    12    13   ar
    24    13    14    1
    25    13    15   ar
    26    15    16   ar
    27    16    17   ar
    28     5     6    1
    29     6     7    1
    30    26    27   ar
    31    27    22   ar
    32     7     2    1
    33    17     8   ar
    34    17    11   ar
    35    29    32    1
@<TRIPOS>MOLECULE
*****
 32 35 0 0 0
SMALL
GASTEIGER

@<TRIPOS>ATOM
      1 C         138.5651  138.4022  161.6367 C.3     1  UNL1        0.0722
      2 N         138.7009  138.7441  163.0909 N.3     1  UNL1       -0.2727
      3 C         139.4649  137.8347  164.0070 C.3     1  UNL1        0.0725
      4 C         139.6007  138.1766  165.4612 C.3     1  UNL1        0.0234
      5 C         138.9725  139.4281  165.9993 C.3     1  UNL1        0.0464
      6 C         138.2086  140.3374  165.0831 C.3     1  UNL1        0.0234
      7 C         138.0728  139.9955  163.6289 C.3     1  UNL1        0.0725
      8 C         139.1083  139.7700  167.4535 C.ar    1  UNL1        0.1003
      9 N         138.2180  139.2867  168.5597 N.ar    1  UNL1       -0.0814
     10 O         138.7178  139.8733  169.8466 O.2     1  UNL1       -0.3536
     11 C         139.9169  140.7191  169.5357 C.ar    1  UNL1        0.1787
     12 C         140.8202  141.5391  170.4084 C.ar    1  UNL1        0.0698
     13 C         141.9649  142.2954  169.8019 C.ar    1  UNL1        0.1433
     14 F         142.8683  143.1155  170.6746 F       1  UNL1       -0.2041
     15 C         142.2063  142.2315  168.3228 C.ar    1  UNL1        0.0299
     16 C         141.3030  141.4115  167.4502 C.ar    1  UNL1        0.0067
     17 C         140.1583  140.6553  168.0567 C.ar    1  UNL1        0.0540
     18 C         139.6432  138.7942  160.6702 C.3     1  UNL1        0.0212
     19 C         141.0607  138.3688  160.9149 C.3     1  UNL1        0.0488
     20 C         142.0655  139.3621  161.4185 C.3     1  UNL1        0.2054
     21 O         142.4256  139.3924  162.8743 O.3     1  UNL1       -0.4755
     22 C         141.9701  143.0566  164.3289 C.ar    1  UNL1        0.0564
     23 C         143.3393  143.3130  164.8852 C.ar    1  UNL1        0.0047
     24 C         144.4039  142.2625  164.7712 C.ar    1  UNL1        0.0033
     25 C         144.0994  140.9557  164.1009 C.ar    1  UNL1        0.0369
     26 C         142.7302  140.6993  163.5446 C.ar    1  UNL1        0.1387
     27 C         141.6655  141.7497  163.6586 C.ar    1  UNL1        0.0414
     28 C         138.6700  144.9430  165.4696 C.3     1  UNL1        0.1109
     29 N         139.7346  143.8924  165.3556 N.am    1  UNL1       -0.2992
     30 C         140.9054  144.1071  164.4429 C.2     1  UNL1        0.2460
     31 O         141.0116  145.3723  163.6440 O.2     1  UNL1       -0.2701
     32 H         139.6649  143.0621  165.8799 H       1  UNL1        0.1498
@<TRIPOS>BOND
     1    28    29    1
     2    29    30   am
     3    30    31    2
     4    30    22    1
     5    22    23   ar
     6    23    24   ar
     7    24    25   ar
     8    25    26   ar
     9    26    21    1
    10    21    20    1
    11    20    19    1
    12    19    18    1
    13    18     1    1
    14     1     2    1
    15     2     3    1
    16     3     4    1
    17     4     5    1
    18     5     8    1
    19     8     9   ar
    20     9    10   ar
    21    10    11   ar
    22    11    12   ar
    23    12    13   ar
    24    13    14    1
    25    13    15   ar
    26    15    16   ar
    27    16    17   ar
    28     5     6    1
    29     6     7    1
    30    26    27   ar
    31    27    22   ar
    32     7     2    1
    33    17     8   ar
    34    17    11   ar
    35    29    32    1
@<TRIPOS>MOLECULE
*****
 32 35 0 0 0
SMALL
GASTEIGER

@<TRIPOS>ATOM
      1 C         144.1828  140.0461  162.0613 C.3     1  UNL1        0.0722
      2 N         143.7645  140.0295  163.5017 N.3     1  UNL1       -0.2727
      3 C         143.4906  141.3186  164.2181 C.3     1  UNL1        0.0725
      4 C         143.0723  141.3020  165.6585 C.3     1  UNL1        0.0234
      5 C         142.9279  139.9961  166.3826 C.3     1  UNL1        0.0464
      6 C         143.2019  138.7072  165.6662 C.3     1  UNL1        0.0234
      7 C         143.6202  138.7238  164.2258 C.3     1  UNL1        0.0725
      8 C         142.5096  139.9795  167.8230 C.ar    1  UNL1        0.1003
      9 N         142.8790  138.9371  168.8364 N.ar    1  UNL1       -0.0814
     10 O         142.2461  139.3158  170.1426 O.2     1  UNL1       -0.3536
     11 C         141.4857  140.5922  169.9364 C.ar    1  UNL1        0.1787
     12 C         140.6660  141.4339  170.8689 C.ar    1  UNL1        0.0698
     13 C         140.0092  142.6859  170.3678 C.ar    1  UNL1        0.1433
     14 F         139.1894  143.5277  171.3003 F       1  UNL1       -0.2041
     15 C         140.1720  143.0961  168.9342 C.ar    1  UNL1        0.0299
     16 C         140.9917  142.2544  168.0017 C.ar    1  UNL1        0.0067
     17 C         141.6485  141.0024  168.5028 C.ar    1  UNL1        0.0540
     18 C         144.0504  138.8062  161.2276 C.3     1  UNL1        0.0212
     19 C         142.9597  137.8188  161.5199 C.3     1  UNL1        0.0488
     20 C         141.5636  138.0788  161.0370 C.3     1  UNL1        0.2054
     21 O         140.3907  137.6603  161.8732 O.3     1  UNL1       -0.4755
     22 C         139.5723  140.6995  164.2906 C.ar    1  UNL1        0.0564
     23 C         139.3314  139.9769  165.5828 C.ar    1  UNL1        0.0047
     24 C         139.4436  138.4821  165.6385 C.ar    1  UNL1        0.0033
     25 C         139.7967  137.7099  164.4019 C.ar    1  UNL1        0.0369
     26 C         140.0376  138.4325  163.1097 C.ar    1  UNL1        0.1387
     27 C         139.9254  139.9273  163.0540 C.ar    1  UNL1        0.0414
     28 C         138.0976  144.3656  164.6577 C.3     1  UNL1        0.1109
     29 N         138.2098  142.8708  164.7134 N.am    1  UNL1       -0.2992
     30 C         139.4600  142.1942  164.2349 C.2     1  UNL1        0.2460
     31 O         140.5982  143.0124  163.7006 O.2     1  UNL1       -0.2701
     32 H         137.4628  142.3339  165.0641 H       1  UNL1        0.1498
@<TRIPOS>BOND
     1    28    29    1
     2    29    30   am
     3    30    31    2
     4    30    22    1
     5    22    23   ar
     6    23    24   ar
     7    24    25   ar
     8    25    26   ar
     9    26    21    1
    10    21    20    1
    11    20    19    1
    12    19    18    1
    13    18     1    1
    14     1     2    1
    15     2     3    1
    16     3     4    1
    17     4     5    1
    18     5     8    1
    19     8     9   ar
    20     9    10   ar
    21    10    11   ar
    22    11    12   ar
    23    12    13   ar
    24    13    14    1
    25    13    15   ar
    26    15    16   ar
    27    16    17   ar
    28     5     6    1
    29     6     7    1
    30    26    27   ar
    31    27    22   ar
    32     7     2    1
    33    17     8   ar
    34    17    11   ar
    35    29    32    1
@<TRIPOS>MOLECULE
*****
 32 35 0 0 0
SMALL
GASTEIGER

@<TRIPOS>ATOM
      1 C         140.0169  137.9604  161.4738 C.3     1  UNL1        0.0722
      2 N         140.4928  138.4255  162.8181 N.3     1  UNL1       -0.2727
      3 C         141.5672  139.4678  162.9140 C.3     1  UNL1        0.0725
      4 C         142.0431  139.9329  164.2583 C.3     1  UNL1        0.0234
      5 C         141.4446  139.3556  165.5068 C.3     1  UNL1        0.0464
      6 C         140.3702  138.3133  165.4109 C.3     1  UNL1        0.0234
      7 C         139.8943  137.8482  164.0665 C.3     1  UNL1        0.0725
      8 C         141.9205  139.8207  166.8512 C.ar    1  UNL1        0.1003
      9 N         142.9247  139.1238  167.7206 N.ar    1  UNL1       -0.0814
     10 O         143.1005  139.9367  168.9688 O.2     1  UNL1       -0.3536
     11 C         142.2050  141.1361  168.8709 C.ar    1  UNL1        0.1787
     12 C         141.9595  142.2843  169.8043 C.ar    1  UNL1        0.0698
     13 C         140.9847  143.3607  169.4290 C.ar    1  UNL1        0.1433
     14 F         140.7391  144.5089  170.3625 F       1  UNL1       -0.2041
     15 C         140.2553  143.2890  168.1202 C.ar    1  UNL1        0.0299
     16 C         140.5009  142.1408  167.1868 C.ar    1  UNL1        0.0067
     17 C         141.4757  141.0644  167.5621 C.ar    1  UNL1        0.0540
     18 C         138.8186  138.6018  160.8392 C.3     1  UNL1        0.0212
     19 C         137.8368  139.3578  161.6847 C.3     1  UNL1        0.0488
     20 C         137.7122  140.8456  161.5402 C.3     1  UNL1        0.2054
     21 O         137.2296  141.6734  162.6942 O.3     1  UNL1       -0.4755
     22 C         140.4803  143.7991  163.5094 C.ar    1  UNL1        0.0564
     23 C         139.9635  144.7052  164.5873 C.ar    1  UNL1        0.0047
     24 C         138.5354  144.6008  165.0341 C.ar    1  UNL1        0.0033
     25 C         137.6241  143.5902  164.4031 C.ar    1  UNL1        0.0369
     26 C         138.1409  142.6840  163.3252 C.ar    1  UNL1        0.1387
     27 C         139.5690  142.7884  162.8784 C.ar    1  UNL1        0.0414
     28 C         143.8893  143.0185  161.6333 C.3     1  UNL1        0.1109
     29 N         142.4612  142.9140  162.0801 N.am    1  UNL1       -0.2992
     30 C         141.9084  143.9035  163.0626 C.2     1  UNL1        0.2460
     31 O         142.7837  144.9975  163.5984 O.2     1  UNL1       -0.2701
     32 H         141.8866  142.1959  161.7285 H       1  UNL1        0.1498
@<TRIPOS>BOND
     1    28    29    1
     2    29    30   am
     3    30    31    2
     4    30    22    1
     5    22    23   ar
     6    23    24   ar
     7    24    25   ar
     8    25    26   ar
     9    26    21    1
    10    21    20    1
    11    20    19    1
    12    19    18    1
    13    18     1    1
    14     1     2    1
    15     2     3    1
    16     3     4    1
    17     4     5    1
    18     5     8    1
    19     8     9   ar
    20     9    10   ar
    21    10    11   ar
    22    11    12   ar
    23    12    13   ar
    24    13    14    1
    25    13    15   ar
    26    15    16   ar
    27    16    17   ar
    28     5     6    1
    29     6     7    1
    30    26    27   ar
    31    27    22   ar
    32     7     2    1
    33    17     8   ar
    34    17    11   ar
    35    29    32    1
@<TRIPOS>MOLECULE
*****
 32 35 0 0 0
SMALL
GASTEIGER

@<TRIPOS>ATOM
      1 C         138.6758  142.8440  160.3761 C.3     1  UNL1        0.0722
      2 N         138.7202  142.2332  161.7453 N.3     1  UNL1       -0.2727
      3 C         139.7741  141.2198  162.0806 C.3     1  UNL1        0.0725
      4 C         139.8186  140.6089  163.4499 C.3     1  UNL1        0.0234
      5 C         138.8092  141.0115  164.4839 C.3     1  UNL1        0.0464
      6 C         137.7554  142.0248  164.1486 C.3     1  UNL1        0.0234
      7 C         137.7109  142.6357  162.7793 C.3     1  UNL1        0.0725
      8 C         138.8537  140.4006  165.8532 C.ar    1  UNL1        0.1003
      9 N         138.1432  139.1522  166.2852 N.ar    1  UNL1       -0.0814
     10 O         138.4669  138.9110  167.7298 O.2     1  UNL1       -0.3536
     11 C         139.3774  140.0104  168.1907 C.ar    1  UNL1        0.1787
     12 C         140.0197  140.2921  169.5166 C.ar    1  UNL1        0.0698
     13 C         140.9010  141.4944  169.6827 C.ar    1  UNL1        0.1433
     14 F         141.5433  141.7762  171.0086 F       1  UNL1       -0.2041
     15 C         141.1400  142.4151  168.5228 C.ar    1  UNL1        0.0299
     16 C         140.4977  142.1334  167.1969 C.ar    1  UNL1        0.0067
     17 C         139.6164  140.9311  167.0309 C.ar    1  UNL1        0.0540
     18 C         139.6503  142.4013  159.3253 C.3     1  UNL1        0.0212
     19 C         140.6723  143.3638  158.7970 C.3     1  UNL1        0.0488
     20 C         140.5602  144.8256  159.1143 C.3     1  UNL1        0.2054
     21 O         141.4488  145.4371  160.1566 O.3     1  UNL1       -0.4755
     22 C         142.4076  143.4345  163.4460 C.ar    1  UNL1        0.0564
     23 C         141.3387  143.9063  164.3867 C.ar    1  UNL1        0.0047
     24 C         140.3065  144.8883  163.9174 C.ar    1  UNL1        0.0033
     25 C         140.3432  145.3986  162.5073 C.ar    1  UNL1        0.0369
     26 C         141.4121  144.9268  161.5666 C.ar    1  UNL1        0.1387
     27 C         142.4443  143.9448  162.0360 C.ar    1  UNL1        0.0414
     28 C         145.8358  141.4601  163.7606 C.3     1  UNL1        0.1109
     29 N         144.8036  142.4421  163.2912 N.am    1  UNL1       -0.2992
     30 C         143.4397  142.4525  163.9154 C.2     1  UNL1        0.2460
     31 O         143.1079  141.4809  165.0090 O.2     1  UNL1       -0.2701
     32 H         145.0214  143.0798  162.5734 H       1  UNL1        0.1498
@<TRIPOS>BOND
     1    28    29    1
     2    29    30   am
     3    30    31    2
     4    30    22    1
     5    22    23   ar
     6    23    24   ar
     7    24    25   ar
     8    25    26   ar
     9    26    21    1
    10    21    20    1
    11    20    19    1
    12    19    18    1
    13    18     1    1
    14     1     2    1
    15     2     3    1
    16     3     4    1
    17     4     5    1
    18     5     8    1
    19     8     9   ar
    20     9    10   ar
    21    10    11   ar
    22    11    12   ar
    23    12    13   ar
    24    13    14    1
    25    13    15   ar
    26    15    16   ar
    27    16    17   ar
    28     5     6    1
    29     6     7    1
    30    26    27   ar
    31    27    22   ar
    32     7     2    1
    33    17     8   ar
    34    17    11   ar
    35    29    32    1
@<TRIPOS>MOLECULE
*****
 32 35 0 0 0
SMALL
GASTEIGER

@<TRIPOS>ATOM
      1 C         143.6593  138.0194  160.9978 C.3     1  UNL1        0.0722
      2 N         143.4383  138.3872  162.4352 N.3     1  UNL1       -0.2727
      3 C         144.3974  139.3079  163.1298 C.3     1  UNL1        0.0725
      4 C         144.1764  139.6757  164.5671 C.3     1  UNL1        0.0234
      5 C         142.9963  139.1227  165.3099 C.3     1  UNL1        0.0464
      6 C         142.0373  138.2020  164.6153 C.3     1  UNL1        0.0234
      7 C         142.2583  137.8342  163.1779 C.3     1  UNL1        0.0725
      8 C         142.7753  139.4904  166.7472 C.ar    1  UNL1        0.1003
      9 N         143.2562  138.7171  167.9391 N.ar    1  UNL1       -0.0814
     10 O         142.8127  139.4449  169.1735 O.2     1  UNL1       -0.3536
     11 C         142.0577  140.6680  168.7445 C.ar    1  UNL1        0.1787
     12 C         141.3884  141.7597  169.5255 C.ar    1  UNL1        0.0698
     13 C         140.6959  142.8795  168.8070 C.ar    1  UNL1        0.1433
     14 F         140.0264  143.9713  169.5881 F       1  UNL1       -0.2041
     15 C         140.6727  142.9077  167.3075 C.ar    1  UNL1        0.0299
     16 C         141.3421  141.8160  166.5264 C.ar    1  UNL1        0.0067
     17 C         142.0346  140.6961  167.2449 C.ar    1  UNL1        0.0540
     18 C         143.0329  138.8393  159.9091 C.3     1  UNL1        0.0212
     19 C         143.6817  140.1165  159.4643 C.3     1  UNL1        0.0488
     20 C         143.1521  141.4343  159.9469 C.3     1  UNL1        0.2054
     21 O         144.0198  142.3326  160.7777 O.3     1  UNL1       -0.4755
     22 C         141.3349  143.8939  163.2483 C.ar    1  UNL1        0.0564
     23 C         142.1990  144.8091  164.0642 C.ar    1  UNL1        0.0047
     24 C         143.6699  144.8988  163.7847 C.ar    1  UNL1        0.0033
     25 C         144.2769  144.0733  162.6892 C.ar    1  UNL1        0.0369
     26 C         143.4128  143.1581  161.8732 C.ar    1  UNL1        0.1387
     27 C         141.9419  143.0683  162.1528 C.ar    1  UNL1        0.0414
     28 C         137.5741  142.6285  163.1749 C.3     1  UNL1        0.1109
     29 N         139.0451  142.7182  162.8952 N.am    1  UNL1       -0.2992
     30 C         139.8639  143.8041  163.5278 C.2     1  UNL1        0.2460
     31 O         139.2118  144.8005  164.4400 O.2     1  UNL1       -0.2701
     32 H         139.4731  142.0642  162.2966 H       1  UNL1        0.1498
@<TRIPOS>BOND
     1    28    29    1
     2    29    30   am
     3    30    31    2
     4    30    22    1
     5    22    23   ar
     6    23    24   ar
     7    24    25   ar
     8    25    26   ar
     9    26    21    1
    10    21    20    1
    11    20    19    1
    12    19    18    1
    13    18     1    1
    14     1     2    1
    15     2     3    1
    16     3     4    1
    17     4     5    1
    18     5     8    1
    19     8     9   ar
    20     9    10   ar
    21    10    11   ar
    22    11    12   ar
    23    12    13   ar
    24    13    14    1
    25    13    15   ar
    26    15    16   ar
    27    16    17   ar
    28     5     6    1
    29     6     7    1
    30    26    27   ar
    31    27    22   ar
    32     7     2    1
    33    17     8   ar
    34    17    11   ar
    35    29    32    1
@<TRIPOS>MOLECULE
*****
 32 35 0 0 0
SMALL
GASTEIGER

@<TRIPOS>ATOM
      1 C         145.2092  141.5519  162.3452 C.3     1  UNL1        0.0722
      2 N         144.5713  141.6632  163.6983 N.3     1  UNL1       -0.2727
      3 C         143.8785  140.4770  164.3007 C.3     1  UNL1        0.0725
      4 C         143.2406  140.5883  165.6537 C.3     1  UNL1        0.0234
      5 C         143.2955  141.8858  166.4044 C.3     1  UNL1        0.0464
      6 C         143.9884  143.0719  165.8020 C.3     1  UNL1        0.0234
      7 C         144.6263  142.9606  164.4489 C.3     1  UNL1        0.0725
      8 C         142.6577  141.9971  167.7574 C.ar    1  UNL1        0.1003
      9 N         143.1804  142.7940  168.9158 N.ar    1  UNL1       -0.0814
     10 O         142.2308  142.6204  170.0639 O.2     1  UNL1       -0.3536
     11 C         141.1212  141.7163  169.6151 C.ar    1  UNL1        0.1787
     12 C         139.9048  141.1940  170.3204 C.ar    1  UNL1        0.0698
     13 C         138.9521  140.2864  169.6001 C.ar    1  UNL1        0.1433
     14 F         137.7356  139.7641  170.3053 F       1  UNL1       -0.2041
     15 C         139.2159  139.9012  168.1746 C.ar    1  UNL1        0.0299
     16 C         140.4324  140.4235  167.4694 C.ar    1  UNL1        0.0067
     17 C         141.3851  141.3310  168.1897 C.ar    1  UNL1        0.0540
     18 C         144.7004  142.3837  161.2054 C.3     1  UNL1        0.0212
     19 C         143.2368  142.3901  160.8765 C.3     1  UNL1        0.0488
     20 C         142.4590  143.6709  160.9425 C.3     1  UNL1        0.2054
     21 O         142.1858  144.3150  162.2693 O.3     1  UNL1       -0.4755
     22 C         139.8605  141.6165  164.0190 C.ar    1  UNL1        0.0564
     23 C         139.2593  142.4340  165.1237 C.ar    1  UNL1        0.0047
     24 C         139.6336  143.8784  165.2769 C.ar    1  UNL1        0.0033
     25 C         140.6091  144.5054  164.3255 C.ar    1  UNL1        0.0369
     26 C         141.2103  143.6880  163.2208 C.ar    1  UNL1        0.1387
     27 C         140.8360  142.2436  163.0675 C.ar    1  UNL1        0.0414
     28 C         140.1579  137.7164  163.3479 C.3     1  UNL1        0.1109
     29 N         140.5323  139.1608  163.5012 N.am    1  UNL1       -0.2992
     30 C         139.4862  140.1721  163.8657 C.2     1  UNL1        0.2460
     31 O         138.0657  139.7390  164.0770 O.2     1  UNL1       -0.2701
     32 H         141.4647  139.4451  163.3625 H       1  UNL1        0.1498
@<TRIPOS>BOND
     1    28    29    1
     2    29    30   am
     3    30    31    2
     4    30    22    1
     5    22    23   ar
     6    23    24   ar
     7    24    25   ar
     8    25    26   ar
     9    26    21    1
    10    21    20    1
    11    20    19    1
    12    19    18    1
    13    18     1    1
    14     1     2    1
    15     2     3    1
    16     3     4    1
    17     4     5    1
    18     5     8    1
    19     8     9   ar
    20     9    10   ar
    21    10    11   ar
    22    11    12   ar
    23    12    13   ar
    24    13    14    1
    25    13    15   ar
    26    15    16   ar
    27    16    17   ar
    28     5     6    1
    29     6     7    1
    30    26    27   ar
    31    27    22   ar
    32     7     2    1
    33    17     8   ar
    34    17    11   ar
    35    29    32    1
