@<TRIPOS>MOLECULE
*****
 30 33 0 0 0
SMALL
GASTEIGER

@<TRIPOS>ATOM
      1 C         141.0684  141.8073  168.8576 C.ar    1  UNL1        0.1737
      2 C         141.0899  141.0687  170.1629 C.ar    1  UNL1        0.0401
      3 C         141.8119  139.7584  170.2713 C.ar    1  UNL1        0.0046
      4 C         142.5123  139.1866  169.0745 C.ar    1  UNL1        0.0217
      5 C         142.4907  139.9252  167.7691 C.ar    1  UNL1        0.1426
      6 C         141.7688  141.2356  167.6607 C.ar    1  UNL1        0.1895
      7 O         141.7472  141.9742  166.3553 O.3     1  UNL1       -0.4686
      8 C         142.4476  141.4025  165.1584 C.3     1  UNL1        0.2104
      9 C         143.1695  140.0921  165.2669 C.3     1  UNL1        0.1779
     10 C         143.8700  139.5204  164.0699 C.3     1  UNL1        0.0300
     11 S         143.1911  139.3535  166.5722 S.O2    1  UNL1        0.0138
     12 O         143.4923  138.2878  167.5839 O.2     1  UNL1       -0.1685
     13 O         143.9961  138.4116  165.7266 O.2     1  UNL1       -0.1685
     14 C         142.4260  142.1411  163.8530 C.ar    1  UNL1        0.0191
     15 C         141.4696  141.7286  162.7736 C.ar    1  UNL1        0.0023
     16 C         141.4480  142.4672  161.4682 C.ar    1  UNL1        0.0367
     17 C         142.3829  143.6182  161.2422 C.ar    1  UNL1        0.1385
     18 C         143.3393  144.0307  162.3216 C.ar    1  UNL1        0.0367
     19 C         143.3609  143.2921  163.6270 C.ar    1  UNL1        0.0023
     20 O         142.3613  144.3568  159.9368 O.3     1  UNL1       -0.4754
     21 C         141.2803  145.3592  159.6600 C.3     1  UNL1        0.2068
     22 C         140.0054  145.3246  160.4496 C.3     1  UNL1        0.0646
     23 C         139.9600  145.9169  161.8270 C.3     1  UNL1        0.0759
     24 N         139.3946  145.1224  162.9667 N.3     1  UNL1       -0.2726
     25 C         138.0760  144.4071  162.9744 C.3     1  UNL1        0.0721
     26 C         137.9149  143.7463  164.3113 C.3     1  UNL1        0.0188
     27 C         139.1339  144.0531  165.1300 C.3     1  UNL1        0.0188
     28 C         140.0483  144.9036  164.2989 C.3     1  UNL1        0.0721
     29 C         140.3907  144.0948  169.8863 C.3     1  UNL1        0.2526
     30 O         140.3464  143.1177  168.7491 O.3     1  UNL1       -0.4683
@<TRIPOS>BOND
     1    29    30    1
     2    30     1    1
     3     1     2   ar
     4     2     3   ar
     5     3     4   ar
     6     4     5   ar
     7     5     6   ar
     8     6     7    1
     9     7     8    1
    10     8    14    1
    11    14    15   ar
    12    15    16   ar
    13    16    17   ar
    14    17    20    1
    15    20    21    1
    16    21    22    1
    17    22    23    1
    18    23    24    1
    19    24    25    1
    20    25    26    1
    21    26    27    1
    22    27    28    1
    23    17    18   ar
    24    18    19   ar
    25     8     9    1
    26     9    10    1
    27     9    11    1
    28    11    12    2
    29    11    13    2
    30     6     1   ar
    31    19    14   ar
    32    11     5    1
    33    28    24    1
@<TRIPOS>MOLECULE
*****
 30 33 0 0 0
SMALL
GASTEIGER

@<TRIPOS>ATOM
      1 C         142.8944  142.1785  167.3619 C.ar    1  UNL1        0.1737
      2 C         143.4992  142.3373  168.7254 C.ar    1  UNL1        0.0401
      3 C         142.8279  141.7260  169.9194 C.ar    1  UNL1        0.0046
      4 C         141.5520  140.9559  169.7500 C.ar    1  UNL1        0.0217
      5 C         140.9472  140.7971  168.3866 C.ar    1  UNL1        0.1426
      6 C         141.6185  141.4084  167.1925 C.ar    1  UNL1        0.1895
      7 O         141.0137  141.2496  165.8290 O.3     1  UNL1       -0.4686
      8 C         139.7377  140.4794  165.6596 C.3     1  UNL1        0.2104
      9 C         139.0664  139.8681  166.8537 C.3     1  UNL1        0.1779
     10 C         137.7904  139.0980  166.6842 C.3     1  UNL1        0.0300
     11 S         139.6712  140.0269  168.2171 S.O2    1  UNL1        0.0138
     12 O         139.8549  139.9034  169.7007 O.2     1  UNL1       -0.1685
     13 O         138.4590  139.2139  168.5629 O.2     1  UNL1       -0.1685
     14 C         139.1329  140.3206  164.2961 C.ar    1  UNL1        0.0191
     15 C         139.5955  139.2145  163.3947 C.ar    1  UNL1        0.0023
     16 C         138.9907  139.0556  162.0313 C.ar    1  UNL1        0.0367
     17 C         137.9234  140.0028  161.5693 C.ar    1  UNL1        0.1385
     18 C         137.4608  141.1090  162.4707 C.ar    1  UNL1        0.0367
     19 C         138.0656  141.2678  163.8341 C.ar    1  UNL1        0.0023
     20 O         137.3186  139.8440  160.2057 O.3     1  UNL1       -0.4754
     21 C         138.0306  140.3857  159.0017 C.3     1  UNL1        0.2068
     22 C         138.5190  141.8039  158.9943 C.3     1  UNL1        0.0646
     23 C         139.9434  142.1085  159.3526 C.3     1  UNL1        0.0759
     24 N         140.2721  142.6810  160.6995 N.3     1  UNL1       -0.2726
     25 C         139.6453  143.8952  161.3182 C.3     1  UNL1        0.0721
     26 C         140.2710  144.1045  162.6653 C.3     1  UNL1        0.0188
     27 C         141.2846  143.0196  162.8792 C.3     1  UNL1        0.0188
     28 C         141.2852  142.1398  161.6642 C.3     1  UNL1        0.0721
     29 C         144.1077  141.9105  165.0803 C.3     1  UNL1        0.2526
     30 O         143.5657  142.7898  166.1679 O.3     1  UNL1       -0.4683
@<TRIPOS>BOND
     1    29    30    1
     2    30     1    1
     3     1     2   ar
     4     2     3   ar
     5     3     4   ar
     6     4     5   ar
     7     5     6   ar
     8     6     7    1
     9     7     8    1
    10     8    14    1
    11    14    15   ar
    12    15    16   ar
    13    16    17   ar
    14    17    20    1
    15    20    21    1
    16    21    22    1
    17    22    23    1
    18    23    24    1
    19    24    25    1
    20    25    26    1
    21    26    27    1
    22    27    28    1
    23    17    18   ar
    24    18    19   ar
    25     8     9    1
    26     9    10    1
    27     9    11    1
    28    11    12    2
    29    11    13    2
    30     6     1   ar
    31    19    14   ar
    32    11     5    1
    33    28    24    1
@<TRIPOS>MOLECULE
*****
 30 33 0 0 0
SMALL
GASTEIGER

@<TRIPOS>ATOM
      1 C         142.7808  142.0679  168.3011 C.ar    1  UNL1        0.1737
      2 C         143.1488  142.5675  169.6667 C.ar    1  UNL1        0.0401
      3 C         142.2614  142.2694  170.8387 C.ar    1  UNL1        0.0046
      4 C         141.0060  141.4716  170.6452 C.ar    1  UNL1        0.0217
      5 C         140.6380  140.9720  169.2796 C.ar    1  UNL1        0.1426
      6 C         141.5254  141.2701  168.1075 C.ar    1  UNL1        0.1895
      7 O         141.1573  140.7705  166.7419 O.3     1  UNL1       -0.4686
      8 C         139.9020  139.9727  166.5483 C.3     1  UNL1        0.2104
      9 C         139.0146  139.6745  167.7204 C.3     1  UNL1        0.1779
     10 C         137.7591  138.8767  167.5267 C.3     1  UNL1        0.0300
     11 S         139.3826  140.1742  169.0859 S.O2    1  UNL1        0.0138
     12 O         139.3053  140.4273  170.5625 O.2     1  UNL1       -0.1685
     13 O         138.1003  139.4642  169.4052 O.2     1  UNL1       -0.1685
     14 C         139.5339  139.4730  165.1827 C.ar    1  UNL1        0.0191
     15 C         140.0488  138.1476  164.7051 C.ar    1  UNL1        0.0023
     16 C         139.6808  137.6479  163.3395 C.ar    1  UNL1        0.0367
     17 C         138.7979  138.4736  162.4515 C.ar    1  UNL1        0.1385
     18 C         138.2829  139.7991  162.9291 C.ar    1  UNL1        0.0367
     19 C         138.6510  140.2988  164.2947 C.ar    1  UNL1        0.0023
     20 O         138.4298  137.9740  161.0859 O.3     1  UNL1       -0.4754
     21 C         139.3638  138.1883  159.9319 C.3     1  UNL1        0.2068
     22 C         140.0994  139.4882  159.7939 C.3     1  UNL1        0.0646
     23 C         141.5911  139.5258  159.9468 C.3     1  UNL1        0.0759
     24 N         142.2062  139.4818  161.3142 N.3     1  UNL1       -0.2726
     25 C         142.1142  140.5559  162.3573 C.3     1  UNL1        0.0721
     26 C         142.8724  140.0940  163.5664 C.3     1  UNL1        0.0188
     27 C         143.4330  138.7344  163.2706 C.3     1  UNL1        0.0188
     28 C         143.0213  138.3561  161.8786 C.3     1  UNL1        0.0721
     29 C         143.0863  142.9558  165.8786 C.3     1  UNL1        0.2526
     30 O         143.6682  142.3661  167.1291 O.3     1  UNL1       -0.4683
@<TRIPOS>BOND
     1    29    30    1
     2    30     1    1
     3     1     2   ar
     4     2     3   ar
     5     3     4   ar
     6     4     5   ar
     7     5     6   ar
     8     6     7    1
     9     7     8    1
    10     8    14    1
    11    14    15   ar
    12    15    16   ar
    13    16    17   ar
    14    17    20    1
    15    20    21    1
    16    21    22    1
    17    22    23    1
    18    23    24    1
    19    24    25    1
    20    25    26    1
    21    26    27    1
    22    27    28    1
    23    17    18   ar
    24    18    19   ar
    25     8     9    1
    26     9    10    1
    27     9    11    1
    28    11    12    2
    29    11    13    2
    30     6     1   ar
    31    19    14   ar
    32    11     5    1
    33    28    24    1
@<TRIPOS>MOLECULE
*****
 30 33 0 0 0
SMALL
GASTEIGER

@<TRIPOS>ATOM
      1 C         139.2556  137.0875  155.3187 C.ar    1  UNL1        0.1737
      2 C         140.0096  136.3798  154.2321 C.ar    1  UNL1        0.0401
      3 C         141.4930  136.1906  154.3494 C.ar    1  UNL1        0.0046
      4 C         142.2223  136.7090  155.5533 C.ar    1  UNL1        0.0217
      5 C         141.4683  137.4166  156.6398 C.ar    1  UNL1        0.1426
      6 C         139.9849  137.6058  156.5225 C.ar    1  UNL1        0.1895
      7 O         139.2309  138.3135  157.6092 O.3     1  UNL1       -0.4686
      8 C         139.9602  138.8319  158.8130 C.3     1  UNL1        0.2104
      9 C         141.4436  138.6426  158.9303 C.3     1  UNL1        0.1779
     10 C         142.1729  139.1610  160.1343 C.3     1  UNL1        0.0300
     11 S         142.1976  137.9350  157.8438 S.O2    1  UNL1        0.0138
     12 O         143.3432  137.3350  157.0836 O.2     1  UNL1       -0.1685
     13 O         143.3248  138.2450  158.7837 O.2     1  UNL1       -0.1685
     14 C         139.2062  139.5395  159.8997 C.ar    1  UNL1        0.0191
     15 C         138.5824  138.7530  161.0143 C.ar    1  UNL1        0.0023
     16 C         137.8284  139.4606  162.1009 C.ar    1  UNL1        0.0367
     17 C         137.6982  140.9547  162.0729 C.ar    1  UNL1        0.1385
     18 C         138.3219  141.7411  160.9583 C.ar    1  UNL1        0.0367
     19 C         139.0759  141.0336  159.8717 C.ar    1  UNL1        0.0023
     20 O         136.9441  141.6623  163.1595 O.3     1  UNL1       -0.4754
     21 C         137.6376  142.6849  164.0101 C.3     1  UNL1        0.2068
     22 C         139.0279  142.4263  164.5100 C.3     1  UNL1        0.0646
     23 C         139.2528  141.4605  165.6355 C.3     1  UNL1        0.0759
     24 N         139.3514  139.9905  165.3539 N.3     1  UNL1       -0.2726
     25 C         138.3505  138.9471  165.7537 C.3     1  UNL1        0.0721
     26 C         138.8487  137.6175  165.2700 C.3     1  UNL1        0.0188
     27 C         140.1574  137.8391  164.5712 C.3     1  UNL1        0.0188
     28 C         140.4681  139.3057  164.6231 C.3     1  UNL1        0.0721
     29 C         137.1697  137.6859  153.8901 C.3     1  UNL1        0.2526
     30 O         137.7722  137.2767  155.2014 O.3     1  UNL1       -0.4683
@<TRIPOS>BOND
     1    29    30    1
     2    30     1    1
     3     1     2   ar
     4     2     3   ar
     5     3     4   ar
     6     4     5   ar
     7     5     6   ar
     8     6     7    1
     9     7     8    1
    10     8    14    1
    11    14    15   ar
    12    15    16   ar
    13    16    17   ar
    14    17    20    1
    15    20    21    1
    16    21    22    1
    17    22    23    1
    18    23    24    1
    19    24    25    1
    20    25    26    1
    21    26    27    1
    22    27    28    1
    23    17    18   ar
    24    18    19   ar
    25     8     9    1
    26     9    10    1
    27     9    11    1
    28    11    12    2
    29    11    13    2
    30     6     1   ar
    31    19    14   ar
    32    11     5    1
    33    28    24    1
@<TRIPOS>MOLECULE
*****
 30 33 0 0 0
SMALL
GASTEIGER

@<TRIPOS>ATOM
      1 C         143.0126  142.8098  159.7381 C.ar    1  UNL1        0.1737
      2 C         143.2093  143.4514  158.3966 C.ar    1  UNL1        0.0401
      3 C         142.3436  144.6042  157.9825 C.ar    1  UNL1        0.0046
      4 C         141.2813  145.1156  158.9098 C.ar    1  UNL1        0.0217
      5 C         141.0847  144.4740  160.2513 C.ar    1  UNL1        0.1426
      6 C         141.9503  143.3212  160.6655 C.ar    1  UNL1        0.1895
      7 O         141.7536  142.6796  162.0071 O.3     1  UNL1       -0.4686
      8 C         140.6914  143.1909  162.9344 C.3     1  UNL1        0.2104
      9 C         139.8257  144.3438  162.5203 C.3     1  UNL1        0.1779
     10 C         138.7634  144.8552  163.4477 C.3     1  UNL1        0.0300
     11 S         140.0223  144.9854  161.1788 S.O2    1  UNL1        0.0138
     12 O         139.8264  145.9169  160.0194 O.2     1  UNL1       -0.1685
     13 O         138.8920  145.8202  161.7035 O.2     1  UNL1       -0.1685
     14 C         140.4947  142.5494  164.2760 C.ar    1  UNL1        0.0191
     15 C         141.1366  143.1454  165.4937 C.ar    1  UNL1        0.0023
     16 C         140.9400  142.5039  166.8352 C.ar    1  UNL1        0.0367
     17 C         140.1014  141.2665  166.9591 C.ar    1  UNL1        0.1385
     18 C         139.4594  140.6705  165.7415 C.ar    1  UNL1        0.0367
     19 C         139.6560  141.3120  164.3999 C.ar    1  UNL1        0.0023
     20 O         139.9047  140.6249  168.3007 O.3     1  UNL1       -0.4754
     21 C         141.0539  139.9422  168.9813 C.3     1  UNL1        0.2068
     22 C         142.4372  140.0560  168.4126 C.3     1  UNL1        0.0646
     23 C         142.9733  138.9745  167.5221 C.3     1  UNL1        0.0759
     24 N         142.8806  139.1155  166.0317 N.3     1  UNL1       -0.2726
     25 C         143.4824  140.2177  165.2112 C.3     1  UNL1        0.0721
     26 C         143.1436  139.9625  163.7724 C.3     1  UNL1        0.0188
     27 C         142.3324  138.7026  163.7036 C.3     1  UNL1        0.0188
     28 C         142.1699  138.1791  165.0999 C.3     1  UNL1        0.0721
     29 C         143.4323  140.2501  159.8846 C.3     1  UNL1        0.2526
     30 O         143.8783  141.6569  160.1523 O.3     1  UNL1       -0.4683
@<TRIPOS>BOND
     1    29    30    1
     2    30     1    1
     3     1     2   ar
     4     2     3   ar
     5     3     4   ar
     6     4     5   ar
     7     5     6   ar
     8     6     7    1
     9     7     8    1
    10     8    14    1
    11    14    15   ar
    12    15    16   ar
    13    16    17   ar
    14    17    20    1
    15    20    21    1
    16    21    22    1
    17    22    23    1
    18    23    24    1
    19    24    25    1
    20    25    26    1
    21    26    27    1
    22    27    28    1
    23    17    18   ar
    24    18    19   ar
    25     8     9    1
    26     9    10    1
    27     9    11    1
    28    11    12    2
    29    11    13    2
    30     6     1   ar
    31    19    14   ar
    32    11     5    1
    33    28    24    1
@<TRIPOS>MOLECULE
*****
 30 33 0 0 0
SMALL
GASTEIGER

@<TRIPOS>ATOM
      1 C         142.6125  142.0113  168.3449 C.ar    1  UNL1        0.1737
      2 C         142.8264  142.5219  169.7390 C.ar    1  UNL1        0.0401
      3 C         141.8364  142.1954  170.8175 C.ar    1  UNL1        0.0046
      4 C         140.6324  141.3583  170.5020 C.ar    1  UNL1        0.0217
      5 C         140.4184  140.8477  169.1079 C.ar    1  UNL1        0.1426
      6 C         141.4085  141.1742  168.0294 C.ar    1  UNL1        0.1895
      7 O         141.1945  140.6636  166.6352 O.3     1  UNL1       -0.4686
      8 C         139.9905  139.8265  166.3197 C.3     1  UNL1        0.2104
      9 C         139.0004  139.5000  167.3982 C.3     1  UNL1        0.1779
     10 C         137.7964  138.6628  167.0826 C.3     1  UNL1        0.0300
     11 S         139.2144  140.0106  168.7923 S.O2    1  UNL1        0.0138
     12 O         138.9822  140.2606  170.2530 O.2     1  UNL1       -0.1685
     13 O         137.9297  139.2603  168.9840 O.2     1  UNL1       -0.1685
     14 C         139.7765  139.3159  164.9256 C.ar    1  UNL1        0.0191
     15 C         140.5625  138.1387  164.4291 C.ar    1  UNL1        0.0023
     16 C         140.3486  137.6281  163.0351 C.ar    1  UNL1        0.0367
     17 C         139.3485  138.2946  162.1375 C.ar    1  UNL1        0.1385
     18 C         138.5625  139.4717  162.6339 C.ar    1  UNL1        0.0367
     19 C         138.7764  139.9823  164.0280 C.ar    1  UNL1        0.0023
     20 O         139.1345  137.7839  160.7433 O.3     1  UNL1       -0.4754
     21 C         139.4932  138.6425  159.5668 C.3     1  UNL1        0.2068
     22 C         140.6755  139.5625  159.6425 C.3     1  UNL1        0.0646
     23 C         140.4766  141.0473  159.5663 C.3     1  UNL1        0.0759
     24 N         140.6919  141.8964  160.7839 N.3     1  UNL1       -0.2726
     25 C         141.4247  141.4858  162.0267 C.3     1  UNL1        0.0721
     26 C         141.3980  142.6407  162.9835 C.3     1  UNL1        0.0188
     27 C         140.6486  143.7651  162.3321 C.3     1  UNL1        0.0188
     28 C         140.2122  143.3050  160.9726 C.3     1  UNL1        0.0721
     29 C         143.1283  142.8929  165.9561 C.3     1  UNL1        0.2526
     30 O         143.6025  142.3378  167.2664 O.3     1  UNL1       -0.4683
@<TRIPOS>BOND
     1    29    30    1
     2    30     1    1
     3     1     2   ar
     4     2     3   ar
     5     3     4   ar
     6     4     5   ar
     7     5     6   ar
     8     6     7    1
     9     7     8    1
    10     8    14    1
    11    14    15   ar
    12    15    16   ar
    13    16    17   ar
    14    17    20    1
    15    20    21    1
    16    21    22    1
    17    22    23    1
    18    23    24    1
    19    24    25    1
    20    25    26    1
    21    26    27    1
    22    27    28    1
    23    17    18   ar
    24    18    19   ar
    25     8     9    1
    26     9    10    1
    27     9    11    1
    28    11    12    2
    29    11    13    2
    30     6     1   ar
    31    19    14   ar
    32    11     5    1
    33    28    24    1
@<TRIPOS>MOLECULE
*****
 30 33 0 0 0
SMALL
GASTEIGER

@<TRIPOS>ATOM
      1 C         140.4415  142.8883  166.9215 C.ar    1  UNL1        0.1737
      2 C         140.1566  143.4696  168.2746 C.ar    1  UNL1        0.0401
      3 C         140.6794  142.7927  169.5069 C.ar    1  UNL1        0.0046
      4 C         141.4871  141.5346  169.3860 C.ar    1  UNL1        0.0217
      5 C         141.7721  140.9534  168.0329 C.ar    1  UNL1        0.1426
      6 C         141.2492  141.6302  166.8007 C.ar    1  UNL1        0.1895
      7 O         141.5342  141.0489  165.4475 O.3     1  UNL1       -0.4686
      8 C         142.3419  139.7908  165.3267 C.3     1  UNL1        0.2104
      9 C         142.8648  139.1139  166.5589 C.3     1  UNL1        0.1779
     10 C         143.6725  137.8558  166.4380 C.3     1  UNL1        0.0300
     11 S         142.5798  139.6952  167.9120 S.O2    1  UNL1        0.0138
     12 O         142.5749  139.8593  169.4031 O.2     1  UNL1       -0.1685
     13 O         143.3859  138.4940  168.3090 O.2     1  UNL1       -0.1685
     14 C         142.6269  139.2095  163.9735 C.ar    1  UNL1        0.0191
     15 C         141.6580  138.2484  163.3510 C.ar    1  UNL1        0.0023
     16 C         141.9429  137.6671  161.9979 C.ar    1  UNL1        0.0367
     17 C         143.1966  138.0469  161.2673 C.ar    1  UNL1        0.1385
     18 C         144.1655  139.0080  161.8899 C.ar    1  UNL1        0.0367
     19 C         143.8806  139.5893  163.2429 C.ar    1  UNL1        0.0023
     20 O         143.4816  137.4656  159.9142 O.3     1  UNL1       -0.4754
     21 C         142.6994  137.9264  158.7201 C.3     1  UNL1        0.2068
     22 C         142.4861  139.3921  158.4833 C.3     1  UNL1        0.0646
     23 C         141.1430  140.0066  158.7450 C.3     1  UNL1        0.0759
     24 N         140.8480  140.6241  160.0797 N.3     1  UNL1       -0.2726
     25 C         139.6385  140.3582  160.9263 C.3     1  UNL1        0.0721
     26 C         139.7536  141.1857  162.1721 C.3     1  UNL1        0.0188
     27 C         141.0343  141.9631  162.0955 C.3     1  UNL1        0.0188
     28 C         141.7106  141.6159  160.8024 C.3     1  UNL1        0.0721
     29 C         138.6450  143.0896  165.0554 C.3     1  UNL1        0.2526
     30 O         139.9186  143.5652  165.6892 O.3     1  UNL1       -0.4683
@<TRIPOS>BOND
     1    29    30    1
     2    30     1    1
     3     1     2   ar
     4     2     3   ar
     5     3     4   ar
     6     4     5   ar
     7     5     6   ar
     8     6     7    1
     9     7     8    1
    10     8    14    1
    11    14    15   ar
    12    15    16   ar
    13    16    17   ar
    14    17    20    1
    15    20    21    1
    16    21    22    1
    17    22    23    1
    18    23    24    1
    19    24    25    1
    20    25    26    1
    21    26    27    1
    22    27    28    1
    23    17    18   ar
    24    18    19   ar
    25     8     9    1
    26     9    10    1
    27     9    11    1
    28    11    12    2
    29    11    13    2
    30     6     1   ar
    31    19    14   ar
    32    11     5    1
    33    28    24    1
@<TRIPOS>MOLECULE
*****
 30 33 0 0 0
SMALL
GASTEIGER

@<TRIPOS>ATOM
      1 C         140.2285  141.0353  159.5832 C.ar    1  UNL1        0.1737
      2 C         139.8727  141.2884  158.1482 C.ar    1  UNL1        0.0401
      3 C         139.6344  142.6902  157.6706 C.ar    1  UNL1        0.0046
      4 C         139.7518  143.8389  158.6280 C.ar    1  UNL1        0.0217
      5 C         140.1075  143.5858  160.0630 C.ar    1  UNL1        0.1426
      6 C         140.3459  142.1839  160.5406 C.ar    1  UNL1        0.1895
      7 O         140.7016  141.9308  161.9757 O.3     1  UNL1       -0.4686
      8 C         140.8190  143.0795  162.9332 C.3     1  UNL1        0.2104
      9 C         140.5807  144.4813  162.4556 C.3     1  UNL1        0.1779
     10 C         140.6981  145.6300  163.4131 C.3     1  UNL1        0.0300
     11 S         140.2250  144.7345  161.0205 S.O2    1  UNL1        0.0138
     12 O         139.8668  145.4760  159.7667 O.2     1  UNL1       -0.1685
     13 O         140.2180  146.1407  161.5426 O.2     1  UNL1       -0.1685
     14 C         141.1747  142.8264  164.3683 C.ar    1  UNL1        0.0191
     15 C         142.6135  142.7001  164.7733 C.ar    1  UNL1        0.0023
     16 C         142.9692  142.4470  166.2083 C.ar    1  UNL1        0.0367
     17 C         141.8862  142.3202  167.2383 C.ar    1  UNL1        0.1385
     18 C         140.4474  142.4465  166.8333 C.ar    1  UNL1        0.0367
     19 C         140.0917  142.6996  165.3983 C.ar    1  UNL1        0.0023
     20 O         142.2419  142.0671  168.6734 O.3     1  UNL1       -0.4754
     21 C         142.8888  140.7727  169.0687 C.3     1  UNL1        0.2068
     22 C         142.3855  139.4787  168.5011 C.3     1  UNL1        0.0646
     23 C         143.0869  138.8482  167.3347 C.3     1  UNL1        0.0759
     24 N         142.5012  138.9585  165.9583 N.3     1  UNL1       -0.2726
     25 C         141.0402  139.0218  165.6242 C.3     1  UNL1        0.0721
     26 C         140.9096  139.1274  164.1337 C.3     1  UNL1        0.0188
     27 C         142.2899  139.1294  163.5464 C.3     1  UNL1        0.0188
     28 C         143.2736  139.0251  164.6741 C.3     1  UNL1        0.0721
     29 C         141.1958  138.6569  159.1863 C.3     1  UNL1        0.2526
     30 O         140.4668  139.6334  160.0608 O.3     1  UNL1       -0.4683
@<TRIPOS>BOND
     1    29    30    1
     2    30     1    1
     3     1     2   ar
     4     2     3   ar
     5     3     4   ar
     6     4     5   ar
     7     5     6   ar
     8     6     7    1
     9     7     8    1
    10     8    14    1
    11    14    15   ar
    12    15    16   ar
    13    16    17   ar
    14    17    20    1
    15    20    21    1
    16    21    22    1
    17    22    23    1
    18    23    24    1
    19    24    25    1
    20    25    26    1
    21    26    27    1
    22    27    28    1
    23    17    18   ar
    24    18    19   ar
    25     8     9    1
    26     9    10    1
    27     9    11    1
    28    11    12    2
    29    11    13    2
    30     6     1   ar
    31    19    14   ar
    32    11     5    1
    33    28    24    1
@<TRIPOS>MOLECULE
*****
 30 33 0 0 0
SMALL
GASTEIGER

@<TRIPOS>ATOM
      1 C         139.5002  139.8449  167.6725 C.ar    1  UNL1        0.1737
      2 C         139.1208  140.1757  169.0855 C.ar    1  UNL1        0.0401
      3 C         139.9388  141.1570  169.8715 C.ar    1  UNL1        0.0046
      4 C         141.1362  141.8075  169.2446 C.ar    1  UNL1        0.0217
      5 C         141.5155  141.4767  167.8316 C.ar    1  UNL1        0.1426
      6 C         140.6975  140.4954  167.0455 C.ar    1  UNL1        0.1895
      7 O         141.0769  140.1646  165.6325 O.3     1  UNL1       -0.4686
      8 C         142.2743  140.8151  165.0055 C.3     1  UNL1        0.2104
      9 C         143.0923  141.7964  165.7915 C.3     1  UNL1        0.1779
     10 C         144.2897  142.4469  165.1645 C.3     1  UNL1        0.0300
     11 S         142.7130  142.1272  167.2045 S.O2    1  UNL1        0.0138
     12 O         142.7544  142.7603  168.5638 O.2     1  UNL1       -0.1685
     13 O         143.9248  142.9976  167.0496 O.2     1  UNL1       -0.1685
     14 C         142.6537  140.4843  163.5924 C.ar    1  UNL1        0.0191
     15 C         141.6493  140.6423  162.4896 C.ar    1  UNL1        0.0023
     16 C         142.0286  140.3115  161.0766 C.ar    1  UNL1        0.0367
     17 C         143.4124  139.8227  160.7664 C.ar    1  UNL1        0.1385
     18 C         144.4168  139.6647  161.8692 C.ar    1  UNL1        0.0367
     19 C         144.0375  139.9955  163.2822 C.ar    1  UNL1        0.0023
     20 O         143.7918  139.4919  159.3533 O.3     1  UNL1       -0.4754
     21 C         144.0309  140.5934  158.3635 C.3     1  UNL1        0.2068
     22 C         144.4493  141.9525  158.8405 C.3     1  UNL1        0.0646
     23 C         143.4648  143.0842  158.8379 C.3     1  UNL1        0.0759
     24 N         142.9453  143.6293  160.1352 N.3     1  UNL1       -0.2726
     25 C         141.6384  144.3386  160.3333 C.3     1  UNL1        0.0721
     26 C         141.5269  144.7086  161.7827 C.3     1  UNL1        0.0188
     27 C         142.7648  144.2280  162.4804 C.3     1  UNL1        0.0188
     28 C         143.6414  143.5610  161.4621 C.3     1  UNL1        0.0721
     29 C         137.3741  138.3713  167.4310 C.3     1  UNL1        0.2526
     30 O         138.6822  138.8635  166.8865 O.3     1  UNL1       -0.4683
@<TRIPOS>BOND
     1    29    30    1
     2    30     1    1
     3     1     2   ar
     4     2     3   ar
     5     3     4   ar
     6     4     5   ar
     7     5     6   ar
     8     6     7    1
     9     7     8    1
    10     8    14    1
    11    14    15   ar
    12    15    16   ar
    13    16    17   ar
    14    17    20    1
    15    20    21    1
    16    21    22    1
    17    22    23    1
    18    23    24    1
    19    24    25    1
    20    25    26    1
    21    26    27    1
    22    27    28    1
    23    17    18   ar
    24    18    19   ar
    25     8     9    1
    26     9    10    1
    27     9    11    1
    28    11    12    2
    29    11    13    2
    30     6     1   ar
    31    19    14   ar
    32    11     5    1
    33    28    24    1
