@<TRIPOS>MOLECULE
*****
 39 43 0 0 0
SMALL
GASTEIGER

@<TRIPOS>ATOM
      1 C         137.9213  140.6348  162.9885 C.ar    1  UNL1        0.1533
      2 C         138.5228  140.8509  164.3456 C.ar    1  UNL1        0.0527
      3 C         139.1691  139.7076  165.0702 C.ar    1  UNL1        0.0511
      4 C         139.2141  138.3482  164.4378 C.ar    1  UNL1        0.0160
      5 C         138.6126  138.1321  163.0808 C.ar    1  UNL1        0.0190
      6 C         137.9662  139.2754  162.3561 C.ar    1  UNL1        0.0850
      7 N         139.7705  139.9238  166.4272 N.pl3   1  UNL1       -0.3040
      8 C         141.2543  140.0898  166.5721 C.3     1  UNL1        0.1123
      9 C         141.8558  140.3060  167.9292 C.3     1  UNL1        0.1149
     10 N         140.9736  140.3562  169.1412 N.am    1  UNL1       -0.2750
     11 C         141.5750  140.5724  170.4983 C.2     1  UNL1        0.2398
     12 O         140.6928  140.6226  171.7104 O.2     1  UNL1       -0.2734
     13 C         139.4898  140.1902  168.9963 C.3     1  UNL1        0.1149
     14 C         138.8883  139.9740  167.6393 C.3     1  UNL1        0.1123
     15 C         143.0587  140.7384  170.6432 C.3     1  UNL1        0.1286
     16 C         143.7259  141.9866  170.1461 C.3     1  UNL1        0.0267
     17 N         143.8753  139.6563  171.2852 N.3     1  UNL1       -0.3150
     18 H         144.8566  139.9345  171.3003 H       1  UNL1        0.1192
     19 H         143.7750  138.7928  170.7517 H       1  UNL1        0.1192
     20 C         137.9365  143.1242  162.2451 C.3     1  UNL1        0.2525
     21 O         137.2749  141.7781  162.2639 O.3     1  UNL1       -0.4701
     22 N         137.3648  139.0592  160.9991 N.pl3   1  UNL1       -0.2802
     23 H         136.4695  138.6582  160.9157 H       1  UNL1        0.1552
     24 C         138.1274  139.4539  159.7692 C.ar    1  UNL1        0.2208
     25 N         139.4718  138.8485  159.4938 N.ar    1  UNL1       -0.2111
     26 C         140.2344  139.2432  158.2639 C.ar    1  UNL1        0.1147
     27 C         139.6525  140.2432  157.3093 C.ar    1  UNL1        0.0960
     28 CL        140.4150  140.6379  156.0794 Cl      1  UNL1       -0.0790
     29 C         138.3079  140.8487  157.5847 C.ar    1  UNL1        0.1138
     30 N         137.5454  140.4539  158.8146 N.ar    1  UNL1       -0.2111
     31 C         137.7260  141.8487  156.6301 C.ar    1  UNL1        0.1031
     32 C         136.5347  141.6327  155.7446 C.ar    1  UNL1        0.1196
     33 N         136.3057  142.8909  154.9607 N.ar    1  UNL1       -0.2248
     34 C         137.3554  143.8845  155.3618 C.ar    1  UNL1        0.1479
     35 C         137.6253  145.2926  154.9208 C.ar    1  UNL1        0.0374
     36 C         138.7730  146.0565  155.5116 C.ar    1  UNL1        0.0046
     37 C         139.6508  145.4124  156.5434 C.ar    1  UNL1        0.0191
     38 C         139.3809  144.0044  156.9844 C.ar    1  UNL1        0.0815
     39 N         138.2332  143.2404  156.3936 N.ar    1  UNL1       -0.2874
@<TRIPOS>BOND
     1    20    21    1
     2    21     1    1
     3     1     2   ar
     4     2     3   ar
     5     3     7    1
     6     7     8    1
     7     8     9    1
     8     9    10    1
     9    10    11   am
    10    11    12    2
    11    11    15    1
    12    15    16    1
    13    15    17    1
    14    10    13    1
    15    13    14    1
    16     3     4   ar
    17     4     5   ar
    18     5     6   ar
    19     6    22    1
    20    22    24    1
    21    24    25   ar
    22    25    26   ar
    23    26    27   ar
    24    27    28    1
    25    27    29   ar
    26    29    31    1
    27    31    32   ar
    28    32    33   ar
    29    33    34   ar
    30    34    35   ar
    31    35    36   ar
    32    36    37   ar
    33    37    38   ar
    34    38    39   ar
    35    29    30   ar
    36     6     1   ar
    37    30    24   ar
    38    14     7    1
    39    39    31   ar
    40    39    34   ar
    41    17    18    1
    42    17    19    1
    43    22    23    1
@<TRIPOS>MOLECULE
*****
 39 43 0 0 0
SMALL
GASTEIGER

@<TRIPOS>ATOM
      1 C         139.8041  144.0126  162.5921 C.ar    1  UNL1        0.1533
      2 C         140.0077  143.1499  163.8023 C.ar    1  UNL1        0.0527
      3 C         141.2693  143.2694  164.6049 C.ar    1  UNL1        0.0511
      4 C         142.3273  144.2516  164.1974 C.ar    1  UNL1        0.0160
      5 C         142.1236  145.1142  162.9873 C.ar    1  UNL1        0.0190
      6 C         140.8621  144.9948  162.1846 C.ar    1  UNL1        0.0850
      7 N         141.4728  142.4067  165.8150 N.pl3   1  UNL1       -0.3040
      8 C         140.7777  142.7427  167.1010 C.3     1  UNL1        0.1123
      9 C         140.9812  141.8800  168.3112 C.3     1  UNL1        0.1149
     10 N         141.8798  140.6814  168.2352 N.am    1  UNL1       -0.2750
     11 C         142.0833  139.8187  169.4453 C.2     1  UNL1        0.2398
     12 O         142.9819  138.6201  169.3694 O.2     1  UNL1       -0.2734
     13 C         142.5749  140.3455  166.9492 C.3     1  UNL1        0.1149
     14 C         142.3714  141.2081  165.7390 C.3     1  UNL1        0.1123
     15 C         141.3882  140.1547  170.7314 C.3     1  UNL1        0.1286
     16 C         139.9235  139.8716  170.8884 C.3     1  UNL1        0.0267
     17 N         142.1577  140.7737  171.8604 N.3     1  UNL1       -0.3150
     18 H         141.5326  140.9336  172.6504 H       1  UNL1        0.1192
     19 H         142.5536  141.6627  171.5548 H       1  UNL1        0.1192
     20 C         138.2745  142.6499  160.9942 C.3     1  UNL1        0.2525
     21 O         138.5425  143.8931  161.7895 O.3     1  UNL1       -0.4701
     22 N         140.6586  145.8575  160.9746 N.pl3   1  UNL1       -0.2802
     23 H         140.3828  146.7966  161.0803 H       1  UNL1        0.1552
     24 C         140.8752  145.2893  159.6033 C.ar    1  UNL1        0.2208
     25 N         142.2537  144.8922  159.1653 N.ar    1  UNL1       -0.2111
     26 C         142.4703  144.3241  157.7940 C.ar    1  UNL1        0.1147
     27 C         141.3084  144.1531  156.8609 C.ar    1  UNL1        0.0960
     28 CL        141.5251  143.5849  155.4897 Cl      1  UNL1       -0.0790
     29 C         139.9298  144.5502  157.2990 C.ar    1  UNL1        0.1138
     30 N         139.7133  145.1183  158.6702 N.ar    1  UNL1       -0.2111
     31 C         138.7679  144.3792  156.3659 C.ar    1  UNL1        0.1031
     32 C         138.3306  145.3553  155.3142 C.ar    1  UNL1        0.1196
     33 N         137.1318  144.7813  154.6190 N.ar    1  UNL1       -0.2248
     34 C         136.8282  143.4505  155.2409 C.ar    1  UNL1        0.1479
     35 C         135.7616  142.4330  154.9636 C.ar    1  UNL1        0.0374
     36 C         135.7063  141.1668  155.7660 C.ar    1  UNL1        0.0046
     37 C         136.7175  140.9183  156.8456 C.ar    1  UNL1        0.0191
     38 C         137.7841  141.9359  157.1229 C.ar    1  UNL1        0.0815
     39 N         137.8394  143.2020  156.3206 N.ar    1  UNL1       -0.2874
@<TRIPOS>BOND
     1    20    21    1
     2    21     1    1
     3     1     2   ar
     4     2     3   ar
     5     3     7    1
     6     7     8    1
     7     8     9    1
     8     9    10    1
     9    10    11   am
    10    11    12    2
    11    11    15    1
    12    15    16    1
    13    15    17    1
    14    10    13    1
    15    13    14    1
    16     3     4   ar
    17     4     5   ar
    18     5     6   ar
    19     6    22    1
    20    22    24    1
    21    24    25   ar
    22    25    26   ar
    23    26    27   ar
    24    27    28    1
    25    27    29   ar
    26    29    31    1
    27    31    32   ar
    28    32    33   ar
    29    33    34   ar
    30    34    35   ar
    31    35    36   ar
    32    36    37   ar
    33    37    38   ar
    34    38    39   ar
    35    29    30   ar
    36     6     1   ar
    37    30    24   ar
    38    14     7    1
    39    39    31   ar
    40    39    34   ar
    41    17    18    1
    42    17    19    1
    43    22    23    1
@<TRIPOS>MOLECULE
*****
 39 43 0 0 0
SMALL
GASTEIGER

@<TRIPOS>ATOM
      1 C         142.1038  144.4089  163.0292 C.ar    1  UNL1        0.1533
      2 C         142.2397  143.6382  164.3090 C.ar    1  UNL1        0.0527
      3 C         141.0712  143.5222  165.2424 C.ar    1  UNL1        0.0511
      4 C         139.7669  144.1770  164.8961 C.ar    1  UNL1        0.0160
      5 C         139.6309  144.9476  163.6164 C.ar    1  UNL1        0.0190
      6 C         140.7994  145.0636  162.6829 C.ar    1  UNL1        0.0850
      7 N         141.2072  142.7516  166.5220 N.pl3   1  UNL1       -0.3040
      8 C         142.3567  141.8063  166.7096 C.3     1  UNL1        0.1123
      9 C         142.4927  141.0355  167.9893 C.3     1  UNL1        0.1149
     10 N         141.4794  141.2101  169.0813 N.am    1  UNL1       -0.2750
     11 C         141.6154  140.4394  170.3610 C.2     1  UNL1        0.2398
     12 O         140.6020  140.6140  171.4530 O.2     1  UNL1       -0.2734
     13 C         140.3299  142.1555  168.8937 C.3     1  UNL1        0.1149
     14 C         140.1939  142.9262  167.6141 C.3     1  UNL1        0.1123
     15 C         142.7648  139.4941  170.5486 C.3     1  UNL1        0.1286
     16 C         142.7711  138.1714  169.8413 C.3     1  UNL1        0.0267
     17 N         143.9079  139.8716  171.4434 N.3     1  UNL1       -0.3150
     18 H         144.5948  139.1176  171.4539 H       1  UNL1        0.1192
     19 H         143.5613  140.0289  172.3897 H       1  UNL1        0.1192
     20 C         143.8018  143.3050  161.4019 C.3     1  UNL1        0.2525
     21 O         143.2723  144.5248  162.0958 O.3     1  UNL1       -0.4701
     22 N         140.6634  145.8343  161.4033 N.pl3   1  UNL1       -0.2802
     23 H         140.5312  146.8095  161.4277 H       1  UNL1        0.1552
     24 C         140.7289  145.1191  160.0864 C.ar    1  UNL1        0.2208
     25 N         141.8140  145.4514  159.1056 N.ar    1  UNL1       -0.2111
     26 C         141.8795  144.7362  157.7887 C.ar    1  UNL1        0.1147
     27 C         140.8598  143.6887  157.4526 C.ar    1  UNL1        0.0960
     28 CL        140.9252  142.9735  156.1357 Cl      1  UNL1       -0.0790
     29 C         139.7746  143.3564  158.4335 C.ar    1  UNL1        0.1138
     30 N         139.7092  144.0716  159.7503 N.ar    1  UNL1       -0.2111
     31 C         138.7549  142.3089  158.0974 C.ar    1  UNL1        0.1031
     32 C         138.5687  141.0001  158.8063 C.ar    1  UNL1        0.1196
     33 N         137.4411  140.2686  158.1404 N.ar    1  UNL1       -0.2248
     34 C         136.9303  141.1253  157.0200 C.ar    1  UNL1        0.1479
     35 C         135.8308  140.9201  156.0206 C.ar    1  UNL1        0.0374
     36 C         135.5432  141.9758  154.9946 C.ar    1  UNL1        0.0046
     37 C         136.3552  143.2368  154.9681 C.ar    1  UNL1        0.0191
     38 C         137.4547  143.4420  155.9675 C.ar    1  UNL1        0.0815
     39 N         137.7423  142.3863  156.9934 N.ar    1  UNL1       -0.2874
@<TRIPOS>BOND
     1    20    21    1
     2    21     1    1
     3     1     2   ar
     4     2     3   ar
     5     3     7    1
     6     7     8    1
     7     8     9    1
     8     9    10    1
     9    10    11   am
    10    11    12    2
    11    11    15    1
    12    15    16    1
    13    15    17    1
    14    10    13    1
    15    13    14    1
    16     3     4   ar
    17     4     5   ar
    18     5     6   ar
    19     6    22    1
    20    22    24    1
    21    24    25   ar
    22    25    26   ar
    23    26    27   ar
    24    27    28    1
    25    27    29   ar
    26    29    31    1
    27    31    32   ar
    28    32    33   ar
    29    33    34   ar
    30    34    35   ar
    31    35    36   ar
    32    36    37   ar
    33    37    38   ar
    34    38    39   ar
    35    29    30   ar
    36     6     1   ar
    37    30    24   ar
    38    14     7    1
    39    39    31   ar
    40    39    34   ar
    41    17    18    1
    42    17    19    1
    43    22    23    1
@<TRIPOS>MOLECULE
*****
 39 43 0 0 0
SMALL
GASTEIGER

@<TRIPOS>ATOM
      1 C         142.0323  138.0126  162.9754 C.ar    1  UNL1        0.1533
      2 C         141.8402  138.6140  164.3362 C.ar    1  UNL1        0.0527
      3 C         142.9539  139.3863  164.9789 C.ar    1  UNL1        0.0511
      4 C         144.2598  139.5573  164.2610 C.ar    1  UNL1        0.0160
      5 C         144.4519  138.9559  162.9004 C.ar    1  UNL1        0.0190
      6 C         143.3382  138.1835  162.2575 C.ar    1  UNL1        0.0850
      7 N         142.7616  139.9876  166.3396 N.pl3   1  UNL1       -0.3040
      8 C         142.7275  141.4784  166.5026 C.3     1  UNL1        0.1123
      9 C         142.5353  142.0798  167.8634 C.3     1  UNL1        0.1149
     10 N         142.3771  141.1905  169.0608 N.am    1  UNL1       -0.2750
     11 C         142.1849  141.7918  170.4215 C.2     1  UNL1        0.2398
     12 O         142.0267  140.9026  171.6191 O.2     1  UNL1       -0.2734
     13 C         142.4113  139.6998  168.8977 C.3     1  UNL1        0.1149
     14 C         142.6035  139.0983  167.5371 C.3     1  UNL1        0.1123
     15 C         142.1508  143.2826  170.5846 C.3     1  UNL1        0.1286
     16 C         140.9317  144.0542  170.1744 C.3     1  UNL1        0.0267
     17 N         143.3358  144.0017  171.1579 N.3     1  UNL1       -0.3150
     18 H         143.1405  145.0020  171.1963 H       1  UNL1        0.1192
     19 H         144.1515  143.8369  170.5680 H       1  UNL1        0.1192
     20 C         139.8386  137.9638  161.5843 C.3     1  UNL1        0.2525
     21 O         140.9186  137.2403  162.3327 O.3     1  UNL1       -0.4701
     22 N         143.5305  137.5822  160.8969 N.pl3   1  UNL1       -0.2802
     23 H         143.9070  136.6769  160.8075 H       1  UNL1        0.1552
     24 C         143.1491  138.3601  159.6724 C.ar    1  UNL1        0.2208
     25 N         142.9160  137.6471  158.3734 N.ar    1  UNL1       -0.2111
     26 C         142.5346  138.4250  157.1489 C.ar    1  UNL1        0.1147
     27 C         142.3863  139.9158  157.2233 C.ar    1  UNL1        0.0960
     28 CL        142.0049  140.6936  155.9988 Cl      1  UNL1       -0.0790
     29 C         142.6194  140.6287  158.5224 C.ar    1  UNL1        0.1138
     30 N         143.0008  139.8509  159.7468 N.ar    1  UNL1       -0.2111
     31 C         142.4711  142.1195  158.5968 C.ar    1  UNL1        0.1031
     32 C         143.2148  143.1222  157.7652 C.ar    1  UNL1        0.1196
     33 N         142.7563  144.4917  158.1704 N.ar    1  UNL1       -0.2248
     34 C         141.7294  144.3355  159.2525 C.ar    1  UNL1        0.1479
     35 C         140.9320  145.3388  160.0319 C.ar    1  UNL1        0.0374
     36 C         139.9584  144.8760  161.0749 C.ar    1  UNL1        0.0046
     37 C         139.7821  143.4099  161.3385 C.ar    1  UNL1        0.0191
     38 C         140.5795  142.4066  160.5591 C.ar    1  UNL1        0.0815
     39 N         141.5531  142.8694  159.5161 N.ar    1  UNL1       -0.2874
@<TRIPOS>BOND
     1    20    21    1
     2    21     1    1
     3     1     2   ar
     4     2     3   ar
     5     3     7    1
     6     7     8    1
     7     8     9    1
     8     9    10    1
     9    10    11   am
    10    11    12    2
    11    11    15    1
    12    15    16    1
    13    15    17    1
    14    10    13    1
    15    13    14    1
    16     3     4   ar
    17     4     5   ar
    18     5     6   ar
    19     6    22    1
    20    22    24    1
    21    24    25   ar
    22    25    26   ar
    23    26    27   ar
    24    27    28    1
    25    27    29   ar
    26    29    31    1
    27    31    32   ar
    28    32    33   ar
    29    33    34   ar
    30    34    35   ar
    31    35    36   ar
    32    36    37   ar
    33    37    38   ar
    34    38    39   ar
    35    29    30   ar
    36     6     1   ar
    37    30    24   ar
    38    14     7    1
    39    39    31   ar
    40    39    34   ar
    41    17    18    1
    42    17    19    1
    43    22    23    1
@<TRIPOS>MOLECULE
*****
 39 43 0 0 0
SMALL
GASTEIGER

@<TRIPOS>ATOM
      1 C         143.5844  140.9449  161.1144 C.ar    1  UNL1        0.1533
      2 C         143.4020  141.2943  162.5618 C.ar    1  UNL1        0.0527
      3 C         143.4390  140.2162  163.6040 C.ar    1  UNL1        0.0511
      4 C         143.6585  138.7887  163.1990 C.ar    1  UNL1        0.0160
      5 C         143.8409  138.4393  161.7518 C.ar    1  UNL1        0.0190
      6 C         143.8039  139.5173  160.7094 C.ar    1  UNL1        0.0850
      7 N         143.2566  140.5657  165.0513 N.pl3   1  UNL1       -0.3040
      8 C         142.8691  139.5029  166.0363 C.3     1  UNL1        0.1123
      9 C         142.6867  139.8523  167.4837 C.3     1  UNL1        0.1149
     10 N         142.8916  141.2645  167.9458 N.am    1  UNL1       -0.2750
     11 C         142.7092  141.6140  169.3931 C.2     1  UNL1        0.2398
     12 O         142.9141  143.0262  169.8553 O.2     1  UNL1       -0.2734
     13 C         143.2790  142.3273  166.9607 C.3     1  UNL1        0.1149
     14 C         143.4615  141.9779  165.5135 C.3     1  UNL1        0.1123
     15 C         142.3218  140.5512  170.3782 C.3     1  UNL1        0.1286
     16 C         140.8740  140.2987  170.6784 C.3     1  UNL1        0.0267
     17 N         143.3821  139.7409  171.0631 N.3     1  UNL1       -0.3150
     18 H         142.9432  139.0704  171.6940 H       1  UNL1        0.1192
     19 H         143.9921  140.3606  171.5963 H       1  UNL1        0.1192
     20 C         142.8693  143.3281  160.3669 C.3     1  UNL1        0.2525
     21 O         143.5474  142.0230  160.0721 O.3     1  UNL1       -0.4701
     22 N         143.9863  139.1679  159.2622 N.pl3   1  UNL1       -0.2802
     23 H         144.8643  139.2889  158.8335 H       1  UNL1        0.1552
     24 C         142.8312  138.6339  158.4681 C.ar    1  UNL1        0.2208
     25 N         141.4569  139.2002  158.6698 N.ar    1  UNL1       -0.2111
     26 C         140.3018  138.6663  157.8757 C.ar    1  UNL1        0.1147
     27 C         140.5209  137.5661  156.8799 C.ar    1  UNL1        0.0960
     28 CL        139.3658  137.0322  156.0859 Cl      1  UNL1       -0.0790
     29 C         141.8953  136.9998  156.6783 C.ar    1  UNL1        0.1138
     30 N         143.0503  137.5337  157.4724 N.ar    1  UNL1       -0.2111
     31 C         142.1144  135.8995  155.6825 C.ar    1  UNL1        0.1031
     32 C         141.7736  135.9508  154.2227 C.ar    1  UNL1        0.1196
     33 N         142.1614  134.6378  153.6098 N.ar    1  UNL1       -0.2248
     34 C         142.7418  133.7750  154.6909 C.ar    1  UNL1        0.1479
     35 C         143.2930  132.3801  154.6743 C.ar    1  UNL1        0.0374
     36 C         143.8151  131.7650  155.9388 C.ar    1  UNL1        0.0046
     37 C         143.7861  132.5447  157.2198 C.ar    1  UNL1        0.0191
     38 C         143.2349  133.9397  157.2364 C.ar    1  UNL1        0.0815
     39 N         142.7128  134.5548  155.9719 N.ar    1  UNL1       -0.2874
@<TRIPOS>BOND
     1    20    21    1
     2    21     1    1
     3     1     2   ar
     4     2     3   ar
     5     3     7    1
     6     7     8    1
     7     8     9    1
     8     9    10    1
     9    10    11   am
    10    11    12    2
    11    11    15    1
    12    15    16    1
    13    15    17    1
    14    10    13    1
    15    13    14    1
    16     3     4   ar
    17     4     5   ar
    18     5     6   ar
    19     6    22    1
    20    22    24    1
    21    24    25   ar
    22    25    26   ar
    23    26    27   ar
    24    27    28    1
    25    27    29   ar
    26    29    31    1
    27    31    32   ar
    28    32    33   ar
    29    33    34   ar
    30    34    35   ar
    31    35    36   ar
    32    36    37   ar
    33    37    38   ar
    34    38    39   ar
    35    29    30   ar
    36     6     1   ar
    37    30    24   ar
    38    14     7    1
    39    39    31   ar
    40    39    34   ar
    41    17    18    1
    42    17    19    1
    43    22    23    1
@<TRIPOS>MOLECULE
*****
 39 43 0 0 0
SMALL
GASTEIGER

@<TRIPOS>ATOM
      1 C         138.0217  140.9011  162.9114 C.ar    1  UNL1        0.1533
      2 C         138.7704  141.1350  164.1900 C.ar    1  UNL1        0.0527
      3 C         139.4421  139.9887  164.8864 C.ar    1  UNL1        0.0511
      4 C         139.3650  138.6085  164.3041 C.ar    1  UNL1        0.0160
      5 C         138.6163  138.3746  163.0256 C.ar    1  UNL1        0.0190
      6 C         137.9446  139.5209  162.3292 C.ar    1  UNL1        0.0850
      7 N         140.1908  140.2227  166.1649 N.pl3   1  UNL1       -0.3040
      8 C         139.8404  141.3926  167.0358 C.3     1  UNL1        0.1123
      9 C         140.5891  141.6267  168.3144 C.3     1  UNL1        0.1149
     10 N         141.6880  140.6908  168.7220 N.am    1  UNL1       -0.2750
     11 C         142.4368  140.9248  170.0006 C.2     1  UNL1        0.2398
     12 O         143.5358  139.9889  170.4083 O.2     1  UNL1       -0.2734
     13 C         142.0384  139.5209  167.8511 C.3     1  UNL1        0.1149
     14 C         141.2898  139.2868  166.5725 C.3     1  UNL1        0.1123
     15 C         142.0864  142.0948  170.8715 C.3     1  UNL1        0.1286
     16 C         142.8551  143.3771  170.7499 C.3     1  UNL1        0.0267
     17 N         140.9673  141.9824  171.8639 N.3     1  UNL1       -0.3150
     18 H         140.8684  142.8647  172.3662 H       1  UNL1        0.1192
     19 H         141.1742  141.2352  172.5266 H       1  UNL1        0.1192
     20 C         138.1271  143.2900  161.8955 C.3     1  UNL1        0.2525
     21 O         137.3500  142.0474  162.2151 O.3     1  UNL1       -0.4701
     22 N         137.1959  139.2869  161.0507 N.pl3   1  UNL1       -0.2802
     23 H         136.2889  138.9049  161.0742 H       1  UNL1        0.1552
     24 C         137.8292  139.6349  159.7362 C.ar    1  UNL1        0.2208
     25 N         137.0875  140.4858  158.7483 N.ar    1  UNL1       -0.2111
     26 C         137.7207  140.8338  157.4338 C.ar    1  UNL1        0.1147
     27 C         139.0957  140.3309  157.1072 C.ar    1  UNL1        0.0960
     28 CL        139.7289  140.6789  155.7927 Cl      1  UNL1       -0.0790
     29 C         139.8374  139.4800  158.0952 C.ar    1  UNL1        0.1138
     30 N         139.2041  139.1321  159.4096 N.ar    1  UNL1       -0.2111
     31 C         141.2124  138.9772  157.7686 C.ar    1  UNL1        0.1031
     32 C         142.5030  139.5405  158.2852 C.ar    1  UNL1        0.1196
     33 N         143.6263  138.7342  157.7039 N.ar    1  UNL1       -0.2248
     34 C         143.0300  137.6725  156.8280 C.ar    1  UNL1        0.1479
     35 C         143.6527  136.5885  155.9991 C.ar    1  UNL1        0.0374
     36 C         142.7835  135.6546  155.2103 C.ar    1  UNL1        0.0046
     37 C         141.2916  135.8048  155.2502 C.ar    1  UNL1        0.0191
     38 C         140.6689  136.8888  156.0790 C.ar    1  UNL1        0.0815
     39 N         141.5380  137.8227  156.8679 N.ar    1  UNL1       -0.2874
@<TRIPOS>BOND
     1    20    21    1
     2    21     1    1
     3     1     2   ar
     4     2     3   ar
     5     3     7    1
     6     7     8    1
     7     8     9    1
     8     9    10    1
     9    10    11   am
    10    11    12    2
    11    11    15    1
    12    15    16    1
    13    15    17    1
    14    10    13    1
    15    13    14    1
    16     3     4   ar
    17     4     5   ar
    18     5     6   ar
    19     6    22    1
    20    22    24    1
    21    24    25   ar
    22    25    26   ar
    23    26    27   ar
    24    27    28    1
    25    27    29   ar
    26    29    31    1
    27    31    32   ar
    28    32    33   ar
    29    33    34   ar
    30    34    35   ar
    31    35    36   ar
    32    36    37   ar
    33    37    38   ar
    34    38    39   ar
    35    29    30   ar
    36     6     1   ar
    37    30    24   ar
    38    14     7    1
    39    39    31   ar
    40    39    34   ar
    41    17    18    1
    42    17    19    1
    43    22    23    1
@<TRIPOS>MOLECULE
*****
 39 43 0 0 0
SMALL
GASTEIGER

@<TRIPOS>ATOM
      1 C         142.1202  143.4615  161.1079 C.ar    1  UNL1        0.1533
      2 C         141.7750  142.6947  162.3502 C.ar    1  UNL1        0.0527
      3 C         140.6734  143.1765  163.2471 C.ar    1  UNL1        0.0511
      4 C         139.9170  144.4249  162.9018 C.ar    1  UNL1        0.0160
      5 C         140.2621  145.1915  161.6596 C.ar    1  UNL1        0.0190
      6 C         141.3637  144.7099  160.7626 C.ar    1  UNL1        0.0850
      7 N         140.3284  142.4098  164.4893 N.pl3   1  UNL1       -0.3040
      8 C         140.9897  142.7538  165.7909 C.3     1  UNL1        0.1123
      9 C         140.6447  141.9871  167.0332 C.3     1  UNL1        0.1149
     10 N         139.6384  140.8764  166.9737 N.am    1  UNL1       -0.2750
     11 C         139.2933  140.1096  168.2160 C.2     1  UNL1        0.2398
     12 O         138.2870  138.9989  168.1566 O.2     1  UNL1       -0.2734
     13 C         138.9771  140.5323  165.6721 C.3     1  UNL1        0.1149
     14 C         139.3221  141.2990  164.4299 C.3     1  UNL1        0.1123
     15 C         139.9547  140.4537  169.5176 C.3     1  UNL1        0.1286
     16 C         141.2053  139.7387  169.9355 C.3     1  UNL1        0.0267
     17 N         139.3654  141.5128  170.4014 N.3     1  UNL1       -0.3150
     18 H         139.9395  141.6156  171.2382 H       1  UNL1        0.1192
     19 H         138.4187  141.2439  170.6695 H       1  UNL1        0.1192
     20 C         144.5185  142.5107  160.8013 C.3     1  UNL1        0.2525
     21 O         143.2217  142.9797  160.2110 O.3     1  UNL1       -0.4701
     22 N         141.7087  145.4766  159.5204 N.pl3   1  UNL1       -0.2802
     23 H         142.4742  146.0957  159.5208 H       1  UNL1        0.1552
     24 C         140.8876  145.3001  158.2777 C.ar    1  UNL1        0.2208
     25 N         139.9959  144.1027  158.1317 N.ar    1  UNL1       -0.2111
     26 C         139.1748  143.9262  156.8889 C.ar    1  UNL1        0.1147
     27 C         139.2452  144.9471  155.7921 C.ar    1  UNL1        0.0960
     28 CL        138.4240  144.7706  154.5494 Cl      1  UNL1       -0.0790
     29 C         140.1369  146.1445  155.9382 C.ar    1  UNL1        0.1138
     30 N         140.9580  146.3210  157.1809 N.ar    1  UNL1       -0.2111
     31 C         140.2073  147.1654  154.8414 C.ar    1  UNL1        0.1031
     32 C         140.8599  146.9788  153.5038 C.ar    1  UNL1        0.1196
     33 N         140.6934  148.2502  152.7254 N.ar    1  UNL1       -0.2248
     34 C         139.9379  149.2226  153.5820 C.ar    1  UNL1        0.1479
     35 C         139.4847  150.6318  153.3401 C.ar    1  UNL1        0.0374
     36 C         138.7310  151.3706  154.4060 C.ar    1  UNL1        0.0046
     37 C         138.4306  150.7002  155.7137 C.ar    1  UNL1        0.0191
     38 C         138.8838  149.2909  155.9556 C.ar    1  UNL1        0.0815
     39 N         139.6374  148.5521  154.8898 N.ar    1  UNL1       -0.2874
@<TRIPOS>BOND
     1    20    21    1
     2    21     1    1
     3     1     2   ar
     4     2     3   ar
     5     3     7    1
     6     7     8    1
     7     8     9    1
     8     9    10    1
     9    10    11   am
    10    11    12    2
    11    11    15    1
    12    15    16    1
    13    15    17    1
    14    10    13    1
    15    13    14    1
    16     3     4   ar
    17     4     5   ar
    18     5     6   ar
    19     6    22    1
    20    22    24    1
    21    24    25   ar
    22    25    26   ar
    23    26    27   ar
    24    27    28    1
    25    27    29   ar
    26    29    31    1
    27    31    32   ar
    28    32    33   ar
    29    33    34   ar
    30    34    35   ar
    31    35    36   ar
    32    36    37   ar
    33    37    38   ar
    34    38    39   ar
    35    29    30   ar
    36     6     1   ar
    37    30    24   ar
    38    14     7    1
    39    39    31   ar
    40    39    34   ar
    41    17    18    1
    42    17    19    1
    43    22    23    1
@<TRIPOS>MOLECULE
*****
 39 43 0 0 0
SMALL
GASTEIGER

@<TRIPOS>ATOM
      1 C         140.1836  139.1772  161.5593 C.ar    1  UNL1        0.1533
      2 C         140.5390  139.3259  163.0090 C.ar    1  UNL1        0.0527
      3 C         141.5955  140.3060  163.4255 C.ar    1  UNL1        0.0511
      4 C         142.2965  141.1373  162.3923 C.ar    1  UNL1        0.0160
      5 C         141.9411  140.9886  160.9427 C.ar    1  UNL1        0.0190
      6 C         140.8846  140.0085  160.5261 C.ar    1  UNL1        0.0850
      7 N         141.9509  140.4546  164.8751 N.pl3   1  UNL1       -0.3040
      8 C         142.1773  141.8190  165.4557 C.3     1  UNL1        0.1123
      9 C         142.5327  141.9678  166.9055 C.3     1  UNL1        0.1149
     10 N         142.6617  140.7521  167.7745 N.am    1  UNL1       -0.2750
     11 C         143.0171  140.9007  169.2242 C.2     1  UNL1        0.2398
     12 O         143.1461  139.6850  170.0933 O.2     1  UNL1       -0.2734
     13 C         142.4353  139.3876  167.1939 C.3     1  UNL1        0.1149
     14 C         142.0799  139.2389  165.7443 C.3     1  UNL1        0.1123
     15 C         143.2435  142.2651  169.8048 C.3     1  UNL1        0.1286
     16 C         142.0742  143.1025  170.2306 C.3     1  UNL1        0.0267
     17 N         144.6393  142.7922  169.9595 N.3     1  UNL1       -0.3150
     18 H         144.6067  143.7267  170.3670 H       1  UNL1        0.1192
     19 H         145.0897  142.8356  169.0453 H       1  UNL1        0.1192
     20 C         137.8745  138.0542  161.9556 C.3     1  UNL1        0.2525
     21 O         139.1271  138.1972  161.1428 O.3     1  UNL1       -0.4701
     22 N         140.5292  139.8599  159.0764 N.pl3   1  UNL1       -0.2802
     23 H         139.6569  140.1773  158.7484 H       1  UNL1        0.1552
     24 C         141.5028  139.2277  158.1265 C.ar    1  UNL1        0.2208
     25 N         142.7014  139.9983  157.6578 N.ar    1  UNL1       -0.2111
     26 C         143.6749  139.3660  156.7079 C.ar    1  UNL1        0.1147
     27 C         143.4499  137.9633  156.2266 C.ar    1  UNL1        0.0960
     28 CL        144.4235  137.3311  155.2766 Cl      1  UNL1       -0.0790
     29 C         142.2513  137.1927  156.6953 C.ar    1  UNL1        0.1138
     30 N         141.2778  137.8249  157.6452 N.ar    1  UNL1       -0.2111
     31 C         142.0263  135.7899  156.2139 C.ar    1  UNL1        0.1031
     32 C         141.0024  135.3569  155.2070 C.ar    1  UNL1        0.1196
     33 N         141.1290  133.8733  155.0258 N.ar    1  UNL1       -0.2248
     34 C         142.2312  133.3894  155.9208 C.ar    1  UNL1        0.1479
     35 C         142.8016  132.0232  156.1620 C.ar    1  UNL1        0.0374
     36 C         143.9264  131.8416  157.1375 C.ar    1  UNL1        0.0046
     37 C         144.4810  133.0262  157.8718 C.ar    1  UNL1        0.0191
     38 C         143.9107  134.3924  157.6306 C.ar    1  UNL1        0.0815
     39 N         142.7858  134.5740  156.6551 N.ar    1  UNL1       -0.2874
@<TRIPOS>BOND
     1    20    21    1
     2    21     1    1
     3     1     2   ar
     4     2     3   ar
     5     3     7    1
     6     7     8    1
     7     8     9    1
     8     9    10    1
     9    10    11   am
    10    11    12    2
    11    11    15    1
    12    15    16    1
    13    15    17    1
    14    10    13    1
    15    13    14    1
    16     3     4   ar
    17     4     5   ar
    18     5     6   ar
    19     6    22    1
    20    22    24    1
    21    24    25   ar
    22    25    26   ar
    23    26    27   ar
    24    27    28    1
    25    27    29   ar
    26    29    31    1
    27    31    32   ar
    28    32    33   ar
    29    33    34   ar
    30    34    35   ar
    31    35    36   ar
    32    36    37   ar
    33    37    38   ar
    34    38    39   ar
    35    29    30   ar
    36     6     1   ar
    37    30    24   ar
    38    14     7    1
    39    39    31   ar
    40    39    34   ar
    41    17    18    1
    42    17    19    1
    43    22    23    1
@<TRIPOS>MOLECULE
*****
 39 43 0 0 0
SMALL
GASTEIGER

@<TRIPOS>ATOM
      1 C         141.4482  138.0013  163.1221 C.ar    1  UNL1        0.1533
      2 C         141.1588  138.6259  164.4549 C.ar    1  UNL1        0.0527
      3 C         142.2302  139.3923  165.1724 C.ar    1  UNL1        0.0511
      4 C         143.5908  139.5341  164.5572 C.ar    1  UNL1        0.0160
      5 C         143.8801  138.9096  163.2245 C.ar    1  UNL1        0.0190
      6 C         142.8088  138.1431  162.5068 C.ar    1  UNL1        0.0850
      7 N         141.9408  140.0168  166.5051 N.pl3   1  UNL1       -0.3040
      8 C         140.9798  141.1644  166.6028 C.3     1  UNL1        0.1123
      9 C         140.6903  141.7890  167.9356 C.3     1  UNL1        0.1149
     10 N         141.3619  141.2659  169.1705 N.am    1  UNL1       -0.2750
     11 C         141.0725  141.8904  170.5034 C.2     1  UNL1        0.2398
     12 O         141.7440  141.3674  171.7385 O.2     1  UNL1       -0.2734
     13 C         142.3229  140.1183  169.0729 C.3     1  UNL1        0.1149
     14 C         142.6123  139.4937  167.7402 C.3     1  UNL1        0.1123
     15 C         140.1115  143.0380  170.6010 C.3     1  UNL1        0.1286
     16 C         140.4992  144.3878  170.0740 C.3     1  UNL1        0.0267
     17 N         138.7628  142.8358  171.2256 N.3     1  UNL1       -0.3150
     18 H         138.2449  143.7144  171.2082 H       1  UNL1        0.1192
     19 H         138.8780  142.5281  172.1912 H       1  UNL1        0.1192
     20 C         139.1403  137.9393  161.9303 C.3     1  UNL1        0.2525
     21 O         140.3768  137.2349  162.4045 O.3     1  UNL1       -0.4701
     22 N         143.0982  137.5186  161.1741 N.pl3   1  UNL1       -0.2802
     23 H         143.6037  136.6753  161.1251 H       1  UNL1        0.1552
     24 C         142.6174  138.1791  159.9161 C.ar    1  UNL1        0.2208
     25 N         142.9236  137.5647  158.5824 N.ar    1  UNL1       -0.2111
     26 C         142.4429  138.2252  157.3243 C.ar    1  UNL1        0.1147
     27 C         141.6559  139.4999  157.4000 C.ar    1  UNL1        0.0960
     28 CL        141.1751  140.1603  156.1419 Cl      1  UNL1       -0.0790
     29 C         141.3497  140.1143  158.7338 C.ar    1  UNL1        0.1138
     30 N         141.8305  139.4538  159.9918 N.ar    1  UNL1       -0.2111
     31 C         140.5627  141.3890  158.8095 C.ar    1  UNL1        0.1031
     32 C         139.1384  141.5204  159.2613 C.ar    1  UNL1        0.1196
     33 N         138.7574  142.9688  159.1777 N.ar    1  UNL1       -0.2248
     34 C         139.9462  143.7325  158.6741 C.ar    1  UNL1        0.1479
     35 C         140.1568  145.1909  158.3935 C.ar    1  UNL1        0.0374
     36 C         141.4832  145.6729  157.8852 C.ar    1  UNL1        0.0046
     37 C         142.5989  144.6965  157.6577 C.ar    1  UNL1        0.0191
     38 C         142.3883  143.2382  157.9384 C.ar    1  UNL1        0.0815
     39 N         141.0619  142.7562  158.4466 N.ar    1  UNL1       -0.2874
@<TRIPOS>BOND
     1    20    21    1
     2    21     1    1
     3     1     2   ar
     4     2     3   ar
     5     3     7    1
     6     7     8    1
     7     8     9    1
     8     9    10    1
     9    10    11   am
    10    11    12    2
    11    11    15    1
    12    15    16    1
    13    15    17    1
    14    10    13    1
    15    13    14    1
    16     3     4   ar
    17     4     5   ar
    18     5     6   ar
    19     6    22    1
    20    22    24    1
    21    24    25   ar
    22    25    26   ar
    23    26    27   ar
    24    27    28    1
    25    27    29   ar
    26    29    31    1
    27    31    32   ar
    28    32    33   ar
    29    33    34   ar
    30    34    35   ar
    31    35    36   ar
    32    36    37   ar
    33    37    38   ar
    34    38    39   ar
    35    29    30   ar
    36     6     1   ar
    37    30    24   ar
    38    14     7    1
    39    39    31   ar
    40    39    34   ar
    41    17    18    1
    42    17    19    1
    43    22    23    1
