@<TRIPOS>MOLECULE
*****
 34 36 0 0 0
SMALL
GASTEIGER

@<TRIPOS>ATOM
      1 C         141.1957  140.5590  163.1463 C.3     1  UNL1        0.0401
      2 C         140.7786  141.3223  161.9243 C.3     1  UNL1        0.0765
      3 N         141.9879  142.0240  161.3808 N.3     1  UNL1       -0.2723
      4 C         143.1524  141.6943  162.2670 C.3     1  UNL1        0.0729
      5 C         142.6628  140.7889  163.3581 C.3     1  UNL1        0.0305
      6 C         138.5163  138.0244  165.7244 C.ar    1  UNL1        0.1387
      7 C         139.5468  137.3757  164.8486 C.ar    1  UNL1        0.0366
      8 C         140.4400  138.2205  163.9892 C.ar    1  UNL1       -0.0011
      9 C         140.3026  139.7141  164.0057 C.ar    1  UNL1       -0.0209
     10 C         139.2720  140.3628  164.8815 C.ar    1  UNL1       -0.0011
     11 C         138.3789  139.5180  165.7409 C.ar    1  UNL1        0.0366
     12 C         136.8808  137.7991  167.7305 C.3     1  UNL1        0.2525
     13 O         137.6231  137.1795  166.5838 O.3     1  UNL1       -0.4714
     14 C         142.0260  142.9012  160.1647 C.3     1  UNL1        0.0736
     15 C         140.9959  143.9763  159.9830 C.3     1  UNL1        0.0364
     16 C         141.0281  145.2001  160.8499 C.3     1  UNL1        0.0969
     17 N         140.7071  145.0926  162.3113 N.3     1  UNL1       -0.1579
     18 C         141.7847  145.3031  163.3333 C.3     1  UNL1        0.1145
     19 S         139.3086  144.7745  162.7505 S.O2    1  UNL1        0.0457
     20 C         137.9101  144.4564  163.1898 C.3     1  UNL1        0.1960
     21 O         138.7725  145.7691  161.7640 O.2     1  UNL1       -0.1572
     22 O         139.8448  143.7799  163.7371 O.2     1  UNL1       -0.1572
     23 C         143.4943  140.2143  164.4664 C.3     1  UNL1        0.0871
     24 C         143.0276  140.3225  165.8878 C.2     1  UNL1        0.2262
     25 O         143.1110  139.1326  166.7973 O.2     1  UNL1       -0.2748
     26 N         142.4775  141.6207  166.3998 N.am    1  UNL1       -0.2839
     27 H         142.4228  142.4017  165.8029 H       1  UNL1        0.1549
     28 C         142.0108  141.7289  167.8213 C.ar    1  UNL1        0.0511
     29 C         142.8698  142.4136  168.8426 C.ar    1  UNL1        0.0147
     30 C         142.4032  142.5219  170.2641 C.ar    1  UNL1        0.0021
     31 C         141.0775  141.9453  170.6642 C.ar    1  UNL1        0.0115
     32 C         140.2185  141.2606  169.6428 C.ar    1  UNL1        0.0589
     33 CL        138.8927  140.6840  170.0429 Cl      1  UNL1       -0.0822
     34 C         140.6851  141.1524  168.2214 C.ar    1  UNL1        0.0261
@<TRIPOS>BOND
     1    12    13    1
     2    13     6    1
     3     6     7   ar
     4     7     8   ar
     5     8     9   ar
     6     1     9    1
     7     1     2    1
     8     2     3    1
     9     3    14    1
    10    14    15    1
    11    15    16    1
    12    16    17    1
    13    17    18    1
    14    17    19    1
    15    19    20    1
    16    19    21    2
    17    19    22    2
    18     3     4    1
    19     4     5    1
    20     5    23    1
    21    23    24    1
    22    24    25    2
    23    24    26   am
    24    26    28    1
    25    28    29   ar
    26    29    30   ar
    27    30    31   ar
    28    31    32   ar
    29    32    33    1
    30    32    34   ar
    31     9    10   ar
    32    10    11   ar
    33    11     6   ar
    34     5     1    1
    35    34    28   ar
    36    26    27    1
@<TRIPOS>MOLECULE
*****
 34 36 0 0 0
SMALL
GASTEIGER

@<TRIPOS>ATOM
      1 C         139.2381  141.4552  165.5175 C.3     1  UNL1        0.0401
      2 C         139.7673  141.5714  166.9162 C.3     1  UNL1        0.0765
      3 N         139.5095  140.2716  167.6190 N.3     1  UNL1       -0.2723
      4 C         138.8209  139.3519  166.6546 C.3     1  UNL1        0.0729
      5 C         138.6532  140.0834  165.3558 C.3     1  UNL1        0.0305
      6 C         139.3804  144.6590  162.3607 C.ar    1  UNL1        0.1387
      7 C         140.5993  143.8328  162.6462 C.ar    1  UNL1        0.0366
      8 C         140.5519  142.7648  163.6985 C.ar    1  UNL1       -0.0011
      9 C         139.2855  142.5231  164.4652 C.ar    1  UNL1       -0.0209
     10 C         138.0666  143.3493  164.1797 C.ar    1  UNL1       -0.0011
     11 C         138.1140  144.4173  163.1274 C.ar    1  UNL1        0.0366
     12 C         140.3001  145.5517  160.1008 C.3     1  UNL1        0.2525
     13 O         139.4278  145.7269  161.3084 O.3     1  UNL1       -0.4714
     14 C         139.8759  139.9482  169.0371 C.3     1  UNL1        0.0736
     15 C         139.6082  140.9439  170.1266 C.3     1  UNL1        0.0364
     16 C         140.7511  141.5515  170.8846 C.3     1  UNL1        0.0969
     17 N         141.4671  142.7476  170.3305 N.3     1  UNL1       -0.1579
     18 C         140.6911  143.9674  169.9307 C.3     1  UNL1        0.1145
     19 S         142.9589  142.7237  170.1763 S.O2    1  UNL1        0.0457
     20 C         144.4508  142.6999  170.0221 C.3     1  UNL1        0.1960
     21 O         142.8494  141.5082  169.3043 O.2     1  UNL1       -0.1572
     22 O         143.0684  143.9393  171.0483 O.2     1  UNL1       -0.1572
     23 C         138.0129  139.5388  164.1135 C.3     1  UNL1        0.0871
     24 C         138.8665  139.0918  162.9640 C.2     1  UNL1        0.2262
     25 O         139.4407  137.7060  162.9505 O.2     1  UNL1       -0.2748
     26 N         139.1460  140.0304  161.8278 N.am    1  UNL1       -0.2839
     27 H         138.7692  140.9399  161.8366 H       1  UNL1        0.1549
     28 C         139.9996  139.5833  160.6783 C.ar    1  UNL1        0.0511
     29 C         139.3781  138.8649  159.5174 C.ar    1  UNL1        0.0147
     30 C         140.2317  138.4178  158.3679 C.ar    1  UNL1        0.0021
     31 C         141.7069  138.6891  158.3791 C.ar    1  UNL1        0.0115
     32 C         142.3284  139.4075  159.5400 C.ar    1  UNL1        0.0589
     33 CL        143.8037  139.6788  159.5512 Cl      1  UNL1       -0.0822
     34 C         141.4748  139.8546  160.6895 C.ar    1  UNL1        0.0261
@<TRIPOS>BOND
     1    12    13    1
     2    13     6    1
     3     6     7   ar
     4     7     8   ar
     5     8     9   ar
     6     1     9    1
     7     1     2    1
     8     2     3    1
     9     3    14    1
    10    14    15    1
    11    15    16    1
    12    16    17    1
    13    17    18    1
    14    17    19    1
    15    19    20    1
    16    19    21    2
    17    19    22    2
    18     3     4    1
    19     4     5    1
    20     5    23    1
    21    23    24    1
    22    24    25    2
    23    24    26   am
    24    26    28    1
    25    28    29   ar
    26    29    30   ar
    27    30    31   ar
    28    31    32   ar
    29    32    33    1
    30    32    34   ar
    31     9    10   ar
    32    10    11   ar
    33    11     6   ar
    34     5     1    1
    35    34    28   ar
    36    26    27    1
@<TRIPOS>MOLECULE
*****
 34 36 0 0 0
SMALL
GASTEIGER

@<TRIPOS>ATOM
      1 C         141.8199  139.0291  163.0362 C.3     1  UNL1        0.0401
      2 C         141.7451  139.0421  161.5381 C.3     1  UNL1        0.0765
      3 N         143.1444  139.1282  161.0048 N.3     1  UNL1       -0.2723
      4 C         144.0841  139.1684  162.1733 C.3     1  UNL1        0.0729
      5 C         143.2655  139.1071  163.4287 C.3     1  UNL1        0.0305
      6 C         138.3217  138.7968  165.8573 C.ar    1  UNL1        0.1387
      7 C         139.0161  137.5417  165.4187 C.ar    1  UNL1        0.0366
      8 C         140.1822  137.6191  164.4783 C.ar    1  UNL1       -0.0011
      9 C         140.6538  138.9517  163.9765 C.ar    1  UNL1       -0.0209
     10 C         139.9594  140.2068  164.4151 C.ar    1  UNL1       -0.0011
     11 C         138.7933  140.1294  165.3555 C.ar    1  UNL1        0.0366
     12 C         136.9493  137.4936  167.6373 C.3     1  UNL1        0.2525
     13 O         137.1556  138.7194  166.7977 O.3     1  UNL1       -0.4714
     14 C         143.5354  139.1672  159.5572 C.3     1  UNL1        0.0736
     15 C         143.5539  140.4736  158.8203 C.3     1  UNL1        0.0364
     16 C         143.6379  141.7631  159.5819 C.3     1  UNL1        0.0969
     17 N         142.3856  142.4262  160.0744 N.3     1  UNL1       -0.1579
     18 C         141.0583  142.0562  159.4818 C.3     1  UNL1        0.1145
     19 S         142.4609  143.4590  161.1595 S.O2    1  UNL1        0.0457
     20 C         142.5362  144.4920  162.2445 C.3     1  UNL1        0.1960
     21 O         142.5366  142.3714  162.1896 O.2     1  UNL1       -0.1572
     22 O         142.3852  144.5467  160.1292 O.2     1  UNL1       -0.1572
     23 C         143.7989  139.1214  164.8306 C.3     1  UNL1        0.0871
     24 C         143.1630  140.0007  165.8661 C.2     1  UNL1        0.2262
     25 O         143.0276  141.4740  165.6183 O.2     1  UNL1       -0.2748
     26 N         142.6626  139.4070  167.1495 N.am    1  UNL1       -0.2839
     27 H         142.7515  138.4402  167.3122 H       1  UNL1        0.1549
     28 C         142.0268  140.2865  168.1850 C.ar    1  UNL1        0.0511
     29 C         140.5700  140.1325  168.5077 C.ar    1  UNL1        0.0147
     30 C         139.9341  141.0120  169.5432 C.ar    1  UNL1        0.0021
     31 C         140.7550  142.0454  170.2560 C.ar    1  UNL1        0.0115
     32 C         142.2118  142.1993  169.9334 C.ar    1  UNL1        0.0589
     33 CL        143.0327  143.2328  170.6462 Cl      1  UNL1       -0.0822
     34 C         142.8476  141.3199  168.8979 C.ar    1  UNL1        0.0261
@<TRIPOS>BOND
     1    12    13    1
     2    13     6    1
     3     6     7   ar
     4     7     8   ar
     5     8     9   ar
     6     1     9    1
     7     1     2    1
     8     2     3    1
     9     3    14    1
    10    14    15    1
    11    15    16    1
    12    16    17    1
    13    17    18    1
    14    17    19    1
    15    19    20    1
    16    19    21    2
    17    19    22    2
    18     3     4    1
    19     4     5    1
    20     5    23    1
    21    23    24    1
    22    24    25    2
    23    24    26   am
    24    26    28    1
    25    28    29   ar
    26    29    30   ar
    27    30    31   ar
    28    31    32   ar
    29    32    33    1
    30    32    34   ar
    31     9    10   ar
    32    10    11   ar
    33    11     6   ar
    34     5     1    1
    35    34    28   ar
    36    26    27    1
@<TRIPOS>MOLECULE
*****
 34 36 0 0 0
SMALL
GASTEIGER

@<TRIPOS>ATOM
      1 C         141.6823  138.3223  160.8713 C.3     1  UNL1        0.0401
      2 C         142.6681  137.9070  159.8198 C.3     1  UNL1        0.0765
      3 N         141.9771  137.9605  158.4895 N.3     1  UNL1       -0.2723
      4 C         140.5642  138.4090  158.7188 C.3     1  UNL1        0.0729
      5 C         140.3820  138.6326  160.1908 C.3     1  UNL1        0.0305
      6 C         142.4848  138.5905  165.2910 C.ar    1  UNL1        0.1387
      7 C         143.1120  139.5793  164.3535 C.ar    1  UNL1        0.0366
      8 C         142.8445  139.4899  162.8803 C.ar    1  UNL1       -0.0011
      9 C         141.9498  138.4117  162.3445 C.ar    1  UNL1       -0.0209
     10 C         141.3226  137.4230  163.2820 C.ar    1  UNL1       -0.0011
     11 C         141.5901  137.5124  164.7553 C.ar    1  UNL1        0.0366
     12 C         142.6474  140.0010  167.4668 C.3     1  UNL1        0.2525
     13 O         142.7523  138.6799  166.7643 O.3     1  UNL1       -0.4714
     14 C         142.5912  137.6246  157.1628 C.3     1  UNL1        0.0736
     15 C         142.3907  136.2628  156.5669 C.3     1  UNL1        0.0364
     16 C         143.5756  135.3931  156.2680 C.3     1  UNL1        0.0969
     17 N         143.5541  133.9410  156.6440 N.3     1  UNL1       -0.1579
     18 C         144.3208  133.4652  157.8422 C.3     1  UNL1        0.1145
     19 S         142.7659  132.9650  155.8218 S.O2    1  UNL1        0.0457
     20 C         141.9776  131.9890  154.9996 C.3     1  UNL1        0.1960
     21 O         143.0903  133.7463  154.5832 O.2     1  UNL1       -0.1572
     22 O         142.4414  132.1837  157.0605 O.2     1  UNL1       -0.1572
     23 C         139.1209  139.0868  160.8642 C.3     1  UNL1        0.0871
     24 C         139.0324  140.4706  161.4358 C.2     1  UNL1        0.2262
     25 O         138.5456  141.6047  160.5831 O.2     1  UNL1       -0.2748
     26 N         139.4306  140.7207  162.8603 N.am    1  UNL1       -0.2839
     27 H         139.7501  139.9764  163.4200 H       1  UNL1        0.1549
     28 C         139.3420  142.1046  163.4319 C.ar    1  UNL1        0.0511
     29 C         138.0459  142.5988  164.0028 C.ar    1  UNL1        0.0147
     30 C         137.9574  143.9828  164.5744 C.ar    1  UNL1        0.0021
     31 C         139.1649  144.8726  164.5752 C.ar    1  UNL1        0.0115
     32 C         140.4610  144.3784  164.0044 C.ar    1  UNL1        0.0589
     33 CL        141.6686  145.2683  164.0051 Cl      1  UNL1       -0.0822
     34 C         140.5495  142.9945  163.4327 C.ar    1  UNL1        0.0261
@<TRIPOS>BOND
     1    12    13    1
     2    13     6    1
     3     6     7   ar
     4     7     8   ar
     5     8     9   ar
     6     1     9    1
     7     1     2    1
     8     2     3    1
     9     3    14    1
    10    14    15    1
    11    15    16    1
    12    16    17    1
    13    17    18    1
    14    17    19    1
    15    19    20    1
    16    19    21    2
    17    19    22    2
    18     3     4    1
    19     4     5    1
    20     5    23    1
    21    23    24    1
    22    24    25    2
    23    24    26   am
    24    26    28    1
    25    28    29   ar
    26    29    30   ar
    27    30    31   ar
    28    31    32   ar
    29    32    33    1
    30    32    34   ar
    31     9    10   ar
    32    10    11   ar
    33    11     6   ar
    34     5     1    1
    35    34    28   ar
    36    26    27    1
@<TRIPOS>MOLECULE
*****
 34 36 0 0 0
SMALL
GASTEIGER

@<TRIPOS>ATOM
      1 C         142.0409  138.6833  159.6112 C.3     1  UNL1        0.0401
      2 C         142.2635  137.8012  158.4186 C.3     1  UNL1        0.0765
      3 N         143.1349  138.5434  157.4492 N.3     1  UNL1       -0.2723
      4 C         143.4509  139.8843  158.0427 C.3     1  UNL1        0.0729
      5 C         142.7748  139.9707  159.3788 C.3     1  UNL1        0.0305
      6 C         139.6001  137.6491  163.2476 C.ar    1  UNL1        0.1387
      7 C         138.9158  137.9919  161.9576 C.ar    1  UNL1        0.0366
      8 C         139.7294  138.3366  160.7455 C.ar    1  UNL1       -0.0011
      9 C         141.2273  138.3386  160.8234 C.ar    1  UNL1       -0.0209
     10 C         141.9117  137.9958  162.1133 C.ar    1  UNL1       -0.0011
     11 C         141.0981  137.6511  163.3255 C.ar    1  UNL1        0.0366
     12 C         138.6401  138.2994  165.5725 C.3     1  UNL1        0.2525
     13 O         138.7866  137.3044  164.4597 O.3     1  UNL1       -0.4714
     14 C         143.6073  138.0341  156.1198 C.3     1  UNL1        0.0736
     15 C         143.0313  136.7704  155.5530 C.3     1  UNL1        0.0364
     16 C         143.8502  135.5138  155.5375 C.3     1  UNL1        0.0969
     17 N         143.2696  134.2337  156.0614 N.3     1  UNL1       -0.1579
     18 C         141.8926  133.8090  155.6448 C.3     1  UNL1        0.1145
     19 S         144.0659  133.3786  157.0018 S.O2    1  UNL1        0.0457
     20 C         144.8623  132.5235  157.9424 C.3     1  UNL1        0.1960
     21 O         144.5554  132.5607  155.8437 O.2     1  UNL1       -0.1572
     22 O         143.5764  134.1966  158.1600 O.2     1  UNL1       -0.1572
     23 C         142.8239  141.1395  160.3178 C.3     1  UNL1        0.0871
     24 C         141.5610  141.6520  160.9441 C.2     1  UNL1        0.2262
     25 O         140.5178  142.3151  160.0943 O.2     1  UNL1       -0.2748
     26 N         141.3412  141.5016  162.4203 N.am    1  UNL1       -0.2839
     27 H         142.0258  141.0665  162.9781 H       1  UNL1        0.1549
     28 C         140.0783  142.0142  163.0465 C.ar    1  UNL1        0.0511
     29 C         138.7832  141.2913  162.8229 C.ar    1  UNL1        0.0147
     30 C         137.5202  141.8039  163.4492 C.ar    1  UNL1        0.0021
     31 C         137.5523  143.0394  164.2991 C.ar    1  UNL1        0.0115
     32 C         138.8474  143.7624  164.5227 C.ar    1  UNL1        0.0589
     33 CL        138.8796  144.9980  165.3726 Cl      1  UNL1       -0.0822
     34 C         140.1104  143.2498  163.8964 C.ar    1  UNL1        0.0261
@<TRIPOS>BOND
     1    12    13    1
     2    13     6    1
     3     6     7   ar
     4     7     8   ar
     5     8     9   ar
     6     1     9    1
     7     1     2    1
     8     2     3    1
     9     3    14    1
    10    14    15    1
    11    15    16    1
    12    16    17    1
    13    17    18    1
    14    17    19    1
    15    19    20    1
    16    19    21    2
    17    19    22    2
    18     3     4    1
    19     4     5    1
    20     5    23    1
    21    23    24    1
    22    24    25    2
    23    24    26   am
    24    26    28    1
    25    28    29   ar
    26    29    30   ar
    27    30    31   ar
    28    31    32   ar
    29    32    33    1
    30    32    34   ar
    31     9    10   ar
    32    10    11   ar
    33    11     6   ar
    34     5     1    1
    35    34    28   ar
    36    26    27    1
@<TRIPOS>MOLECULE
*****
 34 36 0 0 0
SMALL
GASTEIGER

@<TRIPOS>ATOM
      1 C         140.2579  141.2177  167.0087 C.3     1  UNL1        0.0401
      2 C         139.9367  139.7532  166.9656 C.3     1  UNL1        0.0765
      3 N         139.0976  139.4982  165.7487 N.3     1  UNL1       -0.2723
      4 C         138.9002  140.8052  165.0396 C.3     1  UNL1        0.0729
      5 C         139.6173  141.8679  165.8183 C.3     1  UNL1        0.0305
      6 C         142.7122  143.2960  170.1562 C.ar    1  UNL1        0.1387
      7 C         143.3700  142.3507  169.1952 C.ar    1  UNL1        0.0366
      8 C         142.5519  141.6579  168.1460 C.ar    1  UNL1       -0.0011
      9 C         141.0760  141.9105  168.0579 C.ar    1  UNL1       -0.0209
     10 C         140.4182  142.8558  169.0189 C.ar    1  UNL1       -0.0011
     11 C         141.2363  143.5486  170.0681 C.ar    1  UNL1        0.0366
     12 C         145.0153  144.1154  171.0361 C.3     1  UNL1        0.2525
     13 O         143.5303  143.9888  171.2054 O.3     1  UNL1       -0.4714
     14 C         138.5518  138.1695  165.3167 C.3     1  UNL1        0.0736
     15 C         139.1603  137.4528  164.1480 C.3     1  UNL1        0.0364
     16 C         140.5973  137.6894  163.7886 C.3     1  UNL1        0.0969
     17 N         140.9790  137.9616  162.3636 N.3     1  UNL1       -0.1579
     18 C         139.9137  138.1823  161.3310 C.3     1  UNL1        0.1145
     19 S         142.4258  138.0130  161.9716 S.O2    1  UNL1        0.0457
     20 C         143.8728  138.0644  161.5795 C.3     1  UNL1        0.1960
     21 O         142.0469  137.7692  160.5409 O.2     1  UNL1       -0.1572
     22 O         142.8048  138.2567  163.4023 O.2     1  UNL1       -0.1572
     23 C         139.6824  143.3250  165.4682 C.3     1  UNL1        0.0871
     24 C         139.5618  143.7586  164.0374 C.2     1  UNL1        0.2262
     25 O         138.4504  144.6769  163.6230 O.2     1  UNL1       -0.2748
     26 N         140.5526  143.2741  163.0207 N.am    1  UNL1       -0.2839
     27 H         141.2821  142.6715  163.2926 H       1  UNL1        0.1549
     28 C         140.4320  143.7078  161.5898 C.ar    1  UNL1        0.0511
     29 C         141.2114  144.8906  161.0964 C.ar    1  UNL1        0.0147
     30 C         141.0908  145.3243  159.6655 C.ar    1  UNL1        0.0021
     31 C         140.1907  144.5753  158.7281 C.ar    1  UNL1        0.0115
     32 C         139.4112  143.3925  159.2216 C.ar    1  UNL1        0.0589
     33 CL        138.5111  142.6434  158.2841 Cl      1  UNL1       -0.0822
     34 C         139.5319  142.9588  160.6524 C.ar    1  UNL1        0.0261
@<TRIPOS>BOND
     1    12    13    1
     2    13     6    1
     3     6     7   ar
     4     7     8   ar
     5     8     9   ar
     6     1     9    1
     7     1     2    1
     8     2     3    1
     9     3    14    1
    10    14    15    1
    11    15    16    1
    12    16    17    1
    13    17    18    1
    14    17    19    1
    15    19    20    1
    16    19    21    2
    17    19    22    2
    18     3     4    1
    19     4     5    1
    20     5    23    1
    21    23    24    1
    22    24    25    2
    23    24    26   am
    24    26    28    1
    25    28    29   ar
    26    29    30   ar
    27    30    31   ar
    28    31    32   ar
    29    32    33    1
    30    32    34   ar
    31     9    10   ar
    32    10    11   ar
    33    11     6   ar
    34     5     1    1
    35    34    28   ar
    36    26    27    1
@<TRIPOS>MOLECULE
*****
 34 36 0 0 0
SMALL
GASTEIGER

@<TRIPOS>ATOM
      1 C         141.7828  138.4150  158.6536 C.3     1  UNL1        0.0401
      2 C         142.2751  137.6304  157.4738 C.3     1  UNL1        0.0765
      3 N         141.1167  137.4120  156.5462 N.3     1  UNL1       -0.2723
      4 C         139.9084  138.0616  157.1528 C.3     1  UNL1        0.0729
      5 C         140.3201  138.6815  158.4552 C.3     1  UNL1        0.0305
      6 C         144.2591  139.7372  162.1706 C.ar    1  UNL1        0.1387
      7 C         143.7733  138.3206  162.0856 C.ar    1  UNL1        0.0366
      8 C         142.9478  137.8799  160.9133 C.ar    1  UNL1       -0.0011
      9 C         142.6082  138.8557  159.8259 C.ar    1  UNL1       -0.0209
     10 C         143.0941  140.2723  159.9109 C.ar    1  UNL1       -0.0011
     11 C         143.9196  140.7130  161.0832 C.ar    1  UNL1        0.0366
     12 C         145.5965  141.5861  163.4127 C.3     1  UNL1        0.2525
     13 O         145.0846  140.1779  163.3429 O.3     1  UNL1       -0.4714
     14 C         141.1591  136.6736  155.2412 C.3     1  UNL1        0.0736
     15 C         141.0514  135.1776  155.2222 C.3     1  UNL1        0.0364
     16 C         142.0694  134.3617  154.4818 C.3     1  UNL1        0.0969
     17 N         142.9144  133.3666  155.2207 N.3     1  UNL1       -0.1579
     18 C         143.3313  132.0917  154.5494 C.3     1  UNL1        0.1145
     19 S         143.3424  133.6466  156.6308 S.O2    1  UNL1        0.0457
     20 C         143.7705  133.9266  158.0409 C.3     1  UNL1        0.1960
     21 O         142.5501  132.4650  157.1060 O.2     1  UNL1       -0.1572
     22 O         144.1348  134.8283  156.1555 O.2     1  UNL1       -0.1572
     23 C         139.4259  139.4356  159.3943 C.3     1  UNL1        0.0871
     24 C         139.4566  139.1344  160.8633 C.2     1  UNL1        0.2262
     25 O         139.4398  137.7114  161.3378 O.2     1  UNL1       -0.2748
     26 N         139.5042  140.2560  161.8582 N.am    1  UNL1       -0.2839
     27 H         139.5152  141.1899  161.5469 H       1  UNL1        0.1549
     28 C         139.5349  139.9547  163.3273 C.ar    1  UNL1        0.0511
     29 C         138.2672  139.9967  164.1281 C.ar    1  UNL1        0.0147
     30 C         138.2979  139.6954  165.5972 C.ar    1  UNL1        0.0021
     31 C         139.5962  139.3521  166.2655 C.ar    1  UNL1        0.0115
     32 C         140.8638  139.3101  165.4647 C.ar    1  UNL1        0.0589
     33 CL        142.1622  138.9668  166.1329 Cl      1  UNL1       -0.0822
     34 C         140.8331  139.6114  163.9956 C.ar    1  UNL1        0.0261
@<TRIPOS>BOND
     1    12    13    1
     2    13     6    1
     3     6     7   ar
     4     7     8   ar
     5     8     9   ar
     6     1     9    1
     7     1     2    1
     8     2     3    1
     9     3    14    1
    10    14    15    1
    11    15    16    1
    12    16    17    1
    13    17    18    1
    14    17    19    1
    15    19    20    1
    16    19    21    2
    17    19    22    2
    18     3     4    1
    19     4     5    1
    20     5    23    1
    21    23    24    1
    22    24    25    2
    23    24    26   am
    24    26    28    1
    25    28    29   ar
    26    29    30   ar
    27    30    31   ar
    28    31    32   ar
    29    32    33    1
    30    32    34   ar
    31     9    10   ar
    32    10    11   ar
    33    11     6   ar
    34     5     1    1
    35    34    28   ar
    36    26    27    1
@<TRIPOS>MOLECULE
*****
 34 36 0 0 0
SMALL
GASTEIGER

@<TRIPOS>ATOM
      1 C         141.6141  142.3642  162.8443 C.3     1  UNL1        0.0401
      2 C         141.4005  141.3762  163.9525 C.3     1  UNL1        0.0765
      3 N         140.5612  142.0358  165.0063 N.3     1  UNL1       -0.2723
      4 C         140.2560  143.4315  164.5492 C.3     1  UNL1        0.0729
      5 C         140.9067  143.6344  163.2131 C.3     1  UNL1        0.0305
      6 C         143.9644  141.6439  159.0750 C.ar    1  UNL1        0.1387
      7 C         142.6010  141.0396  159.2357 C.ar    1  UNL1        0.0366
      8 C         141.8175  141.2797  160.4922 C.ar    1  UNL1       -0.0011
      9 C         142.3976  142.1241  161.5879 C.ar    1  UNL1       -0.0209
     10 C         143.7610  142.7283  161.4271 C.ar    1  UNL1       -0.0011
     11 C         144.5444  142.4882  160.1707 C.ar    1  UNL1        0.0366
     12 C         145.7799  142.3984  157.3767 C.3     1  UNL1        0.2525
     13 O         144.7478  141.4037  157.8186 O.3     1  UNL1       -0.4714
     14 C         140.1068  141.4097  166.2913 C.3     1  UNL1        0.0736
     15 C         139.2211  140.1994  166.2639 C.3     1  UNL1        0.0364
     16 C         138.1385  140.0856  165.2319 C.3     1  UNL1        0.0969
     17 N         138.4274  139.4380  163.9100 N.3     1  UNL1       -0.1579
     18 C         138.9349  138.0273  163.8611 C.3     1  UNL1        0.1145
     19 S         138.2089  140.2011  162.6374 S.O2    1  UNL1        0.0457
     20 C         137.9902  140.9643  161.3647 C.3     1  UNL1        0.1960
     21 O         139.0464  139.2027  161.8948 O.2     1  UNL1       -0.1572
     22 O         137.3712  141.1995  163.3800 O.2     1  UNL1       -0.1572
     23 C         140.8586  144.8877  162.3902 C.3     1  UNL1        0.0871
     24 C         140.6536  144.8034  160.9067 C.2     1  UNL1        0.2262
     25 O         139.4703  144.0658  160.3537 O.2     1  UNL1       -0.2748
     26 N         141.6319  145.4568  159.9761 N.am    1  UNL1       -0.2839
     27 H         142.4086  145.9410  160.3390 H       1  UNL1        0.1549
     28 C         141.4269  145.3725  158.4925 C.ar    1  UNL1        0.0511
     29 C         142.3440  144.5311  157.6553 C.ar    1  UNL1        0.0147
     30 C         142.1390  144.4468  156.1718 C.ar    1  UNL1        0.0021
     31 C         141.0170  145.2040  155.5254 C.ar    1  UNL1        0.0115
     32 C         140.0999  146.0454  156.3627 C.ar    1  UNL1        0.0589
     33 CL        138.9778  146.8026  155.7164 Cl      1  UNL1       -0.0822
     34 C         140.3049  146.1297  157.8462 C.ar    1  UNL1        0.0261
@<TRIPOS>BOND
     1    12    13    1
     2    13     6    1
     3     6     7   ar
     4     7     8   ar
     5     8     9   ar
     6     1     9    1
     7     1     2    1
     8     2     3    1
     9     3    14    1
    10    14    15    1
    11    15    16    1
    12    16    17    1
    13    17    18    1
    14    17    19    1
    15    19    20    1
    16    19    21    2
    17    19    22    2
    18     3     4    1
    19     4     5    1
    20     5    23    1
    21    23    24    1
    22    24    25    2
    23    24    26   am
    24    26    28    1
    25    28    29   ar
    26    29    30   ar
    27    30    31   ar
    28    31    32   ar
    29    32    33    1
    30    32    34   ar
    31     9    10   ar
    32    10    11   ar
    33    11     6   ar
    34     5     1    1
    35    34    28   ar
    36    26    27    1
@<TRIPOS>MOLECULE
*****
 34 36 0 0 0
SMALL
GASTEIGER

@<TRIPOS>ATOM
      1 C         143.3736  138.9533  161.4553 C.3     1  UNL1        0.0401
      2 C         142.9362  137.8815  160.5013 C.3     1  UNL1        0.0765
      3 N         143.0817  138.4146  159.1068 N.3     1  UNL1       -0.2723
      4 C         143.6090  139.8158  159.1989 C.3     1  UNL1        0.0729
      5 C         143.7894  140.1488  160.6503 C.3     1  UNL1        0.0305
      6 C         143.4287  138.6377  165.9439 C.ar    1  UNL1        0.1387
      7 C         142.2099  138.2171  165.1773 C.ar    1  UNL1        0.0366
      8 C         142.1915  138.3224  163.6811 C.ar    1  UNL1       -0.0011
      9 C         143.3920  138.8481  162.9515 C.ar    1  UNL1       -0.0209
     10 C         144.6108  139.2686  163.7180 C.ar    1  UNL1       -0.0011
     11 C         144.6291  139.1634  165.2142 C.ar    1  UNL1        0.0366
     12 C         142.5970  139.4509  168.2670 C.3     1  UNL1        0.2525
     13 O         143.4470  138.5325  167.4401 O.3     1  UNL1       -0.4714
     14 C         142.7569  137.6761  157.8423 C.3     1  UNL1        0.0736
     15 C         141.8930  138.3198  156.7986 C.3     1  UNL1        0.0364
     16 C         140.5158  138.7959  157.1544 C.3     1  UNL1        0.0969
     17 N         140.3323  140.1216  157.8321 N.3     1  UNL1       -0.1579
     18 C         140.7367  141.3845  157.1310 C.3     1  UNL1        0.1145
     19 S         139.7446  140.1842  159.2106 S.O2    1  UNL1        0.0457
     20 C         139.1567  140.2467  160.5892 C.3     1  UNL1        0.1960
     21 O         140.5599  141.4088  159.5027 O.2     1  UNL1       -0.1572
     22 O         138.9291  138.9595  158.9184 O.2     1  UNL1       -0.1572
     23 C         144.2965  141.4489  161.2002 C.3     1  UNL1        0.0871
     24 C         143.4419  142.2522  162.1352 C.2     1  UNL1        0.2262
     25 O         144.0793  143.2069  163.1008 O.2     1  UNL1       -0.2748
     26 N         141.9498  142.1008  162.1047 N.am    1  UNL1       -0.2839
     27 H         141.5315  141.4743  161.4709 H       1  UNL1        0.1549
     28 C         141.0952  142.9041  163.0398 C.ar    1  UNL1        0.0511
     29 C         140.2750  144.0444  162.5136 C.ar    1  UNL1        0.0147
     30 C         139.4204  144.8477  163.4487 C.ar    1  UNL1        0.0021
     31 C         139.3860  144.5108  164.9099 C.ar    1  UNL1        0.0115
     32 C         140.2063  143.3705  165.4361 C.ar    1  UNL1        0.0589
     33 CL        140.1719  143.0334  166.8974 Cl      1  UNL1       -0.0822
     34 C         141.0609  142.5672  164.5010 C.ar    1  UNL1        0.0261
@<TRIPOS>BOND
     1    12    13    1
     2    13     6    1
     3     6     7   ar
     4     7     8   ar
     5     8     9   ar
     6     1     9    1
     7     1     2    1
     8     2     3    1
     9     3    14    1
    10    14    15    1
    11    15    16    1
    12    16    17    1
    13    17    18    1
    14    17    19    1
    15    19    20    1
    16    19    21    2
    17    19    22    2
    18     3     4    1
    19     4     5    1
    20     5    23    1
    21    23    24    1
    22    24    25    2
    23    24    26   am
    24    26    28    1
    25    28    29   ar
    26    29    30   ar
    27    30    31   ar
    28    31    32   ar
    29    32    33    1
    30    32    34   ar
    31     9    10   ar
    32    10    11   ar
    33    11     6   ar
    34     5     1    1
    35    34    28   ar
    36    26    27    1
