@<TRIPOS>MOLECULE
*****
 43 48 0 0 0
SMALL
GASTEIGER

@<TRIPOS>ATOM
      1 N         141.8284  141.8380  157.9016 N.am    1  UNL1       -0.2975
      2 C         143.0511  140.9942  157.6949 C.2     1  UNL1        0.2459
      3 O         144.4146  141.6100  157.8037 O.2     1  UNL1       -0.2701
      4 H         140.9335  141.4338  157.8303 H       1  UNL1        0.1499
      5 C         142.9105  139.5345  157.3795 C.ar    1  UNL1        0.0534
      6 C         143.5767  138.9623  156.1635 C.ar    1  UNL1        0.0047
      7 C         143.4361  137.5026  155.8479 C.ar    1  UNL1        0.0048
      8 C         142.6291  136.6150  156.7485 C.ar    1  UNL1        0.0536
      9 C         141.9629  137.1872  157.9645 C.ar    1  UNL1        0.0048
     10 C         142.1035  138.6469  158.2801 C.ar    1  UNL1        0.0047
     11 C         142.4885  135.1553  156.4331 C.ar    1  UNL1        0.2296
     12 N         141.5302  134.5546  155.4478 N.ar    1  UNL1       -0.2082
     13 C         141.7309  133.0681  155.4533 C.ar    1  UNL1        0.1192
     14 C         141.0679  131.9630  154.6858 C.ar    1  UNL1        0.0326
     15 C         141.4873  130.5398  154.9070 C.ar    1  UNL1        0.0698
     16 C         142.5695  130.2219  155.8957 C.ar    1  UNL1        0.0091
     17 C         143.2325  131.3270  156.6632 C.ar    1  UNL1        0.0143
     18 C         142.8132  132.7501  156.4421 C.ar    1  UNL1        0.1607
     19 O         143.2814  134.0401  157.0476 O.2     1  UNL1       -0.4349
     20 C         144.3148  131.0091  157.6519 C.3     1  UNL1        0.0254
     21 C         144.2815  129.7152  158.4102 C.3     1  UNL1        0.0048
     22 C         145.4304  131.9850  157.8824 C.3     1  UNL1        0.0048
     23 C         140.8242  129.4346  154.1395 C.1     1  UNL1        0.1005
     24 N         140.1613  128.3295  153.3720 N.1     1  UNL1       -0.1908
     25 C         141.9691  143.2977  158.2171 C.3     1  UNL1        0.1355
     26 N         141.0544  143.9615  161.9303 N.am    1  UNL1       -0.2059
     27 C         141.5627  143.0560  160.8480 C.3     1  UNL1        0.1483
     28 C         141.5430  143.8198  159.5572 C.3     1  UNL1        0.2101
     29 O         141.0225  145.1975  159.8418 O.3     1  UNL1       -0.4345
     30 C         140.7205  145.2851  161.3085 C.2     1  UNL1        0.4098
     31 O         140.1796  146.4855  162.0272 O.2     1  UNL1       -0.2258
     32 C         140.6092  142.8949  166.2794 C.ar    1  UNL1        0.0253
     33 C         141.8355  142.4732  165.5254 C.ar    1  UNL1        0.0049
     34 C         141.9839  142.8287  164.0758 C.ar    1  UNL1        0.0348
     35 C         140.9060  143.6060  163.3800 C.ar    1  UNL1        0.1400
     36 N         139.6797  144.0277  164.1339 N.ar    1  UNL1       -0.2287
     37 C         139.5313  143.6721  165.5837 C.ar    1  UNL1        0.1008
     38 C         140.1368  140.1194  170.7464 C.3     1  UNL1        0.0382
     39 C         140.2436  141.2636  169.7823 C.ar    1  UNL1        0.0076
     40 C         140.2211  142.7208  170.1374 C.ar    1  UNL1        0.0027
     41 C         140.3553  143.5092  168.8684 C.ar    1  UNL1        0.0067
     42 C         140.4607  142.5393  167.7290 C.ar    1  UNL1        0.0306
     43 S         140.3917  141.1514  168.2939 S.2     1  UNL1       -0.0912
@<TRIPOS>BOND
     1    38    39    1
     2    39    40   ar
     3    40    41   ar
     4    41    42   ar
     5    42    32    1
     6    32    33   ar
     7    33    34   ar
     8    34    35   ar
     9    35    26    1
    10    26    27    1
    11    27    28    1
    12    28    25    1
    13    25     1    1
    14     1     2   am
    15     2     3    2
    16     2     5    1
    17     5     6   ar
    18     6     7   ar
    19     7     8   ar
    20     8    11    1
    21    11    12   ar
    22    12    13   ar
    23    13    14   ar
    24    14    15   ar
    25    15    23    1
    26    23    24    3
    27    15    16   ar
    28    16    17   ar
    29    17    20    1
    30    20    21    1
    31    20    22    1
    32    17    18   ar
    33    18    19   ar
    34     8     9   ar
    35     9    10   ar
    36    28    29    1
    37    29    30    1
    38    30    31    2
    39    35    36   ar
    40    36    37   ar
    41    42    43   ar
    42    43    39   ar
    43    37    32   ar
    44    30    26   am
    45    10     5   ar
    46    19    11   ar
    47    18    13   ar
    48     1     4    1
@<TRIPOS>MOLECULE
*****
 43 48 0 0 0
SMALL
GASTEIGER

@<TRIPOS>ATOM
      1 N         138.9632  142.6149  157.1044 N.am    1  UNL1       -0.2975
      2 C         139.4565  141.3730  157.7856 C.2     1  UNL1        0.2459
      3 O         139.5579  140.0872  157.0197 O.2     1  UNL1       -0.2701
      4 H         138.8966  143.4588  157.6071 H       1  UNL1        0.1499
      5 C         139.8483  141.4167  159.2329 C.ar    1  UNL1        0.0534
      6 C         139.1387  140.5479  160.2287 C.ar    1  UNL1        0.0047
      7 C         139.5305  140.5916  161.6760 C.ar    1  UNL1        0.0048
      8 C         140.6321  141.5042  162.1274 C.ar    1  UNL1        0.0536
      9 C         141.3417  142.3730  161.1317 C.ar    1  UNL1        0.0048
     10 C         140.9498  142.3293  159.6844 C.ar    1  UNL1        0.0047
     11 C         141.0239  141.5480  163.5747 C.ar    1  UNL1        0.2296
     12 N         142.2497  142.2050  164.1367 N.ar    1  UNL1       -0.2082
     13 C         142.2421  142.0055  165.6234 C.ar    1  UNL1        0.1192
     14 C         143.1967  142.4336  166.6983 C.ar    1  UNL1        0.0326
     15 C         142.9208  142.0813  168.1301 C.ar    1  UNL1        0.0698
     16 C         141.6905  141.3010  168.4868 C.ar    1  UNL1        0.0091
     17 C         140.7359  140.8730  167.4118 C.ar    1  UNL1        0.0143
     18 C         141.0117  141.2252  165.9801 C.ar    1  UNL1        0.1607
     19 O         140.2588  140.9425  164.7139 O.2     1  UNL1       -0.4349
     20 C         139.5055  140.0927  167.7686 C.3     1  UNL1        0.0254
     21 C         138.9812  140.1201  169.1737 C.3     1  UNL1        0.0048
     22 C         138.7994  139.2849  166.7202 C.3     1  UNL1        0.0048
     23 C         143.8754  142.5094  169.2051 C.1     1  UNL1        0.1005
     24 N         144.8300  142.9374  170.2801 N.1     1  UNL1       -0.1908
     25 C         138.5713  142.5711  155.6571 C.3     1  UNL1        0.1355
     26 N         135.0087  141.0596  155.3593 N.am    1  UNL1       -0.2059
     27 C         136.2231  141.4016  156.1706 C.3     1  UNL1        0.1483
     28 C         137.2157  142.0647  155.2622 C.3     1  UNL1        0.2101
     29 O         136.6146  142.1325  153.8895 O.3     1  UNL1       -0.4345
     30 C         135.2506  141.5113  153.9496 C.2     1  UNL1        0.4098
     31 O         134.2962  141.3671  152.8014 O.2     1  UNL1       -0.2258
     32 C         131.2919  139.0341  156.8867 C.ar    1  UNL1        0.0253
     33 C         131.2057  140.4063  156.2871 C.ar    1  UNL1        0.0049
     34 C         132.4446  141.0815  155.7780 C.ar    1  UNL1        0.0348
     35 C         133.7698  140.3844  155.8684 C.ar    1  UNL1        0.1400
     36 N         133.8560  139.0121  156.4680 N.ar    1  UNL1       -0.2287
     37 C         132.6170  138.3370  156.9771 C.ar    1  UNL1        0.1008
     38 C         127.4129  137.3990  160.0742 C.3     1  UNL1        0.0382
     39 C         128.2700  137.6073  158.8609 C.ar    1  UNL1        0.0076
     40 C         128.0230  137.0324  157.4977 C.ar    1  UNL1        0.0027
     41 C         129.1250  137.4970  156.5922 C.ar    1  UNL1        0.0067
     42 C         130.0530  138.3589  157.3958 C.ar    1  UNL1        0.0306
     43 S         129.5245  138.4271  158.7981 S.2     1  UNL1       -0.0912
@<TRIPOS>BOND
     1    38    39    1
     2    39    40   ar
     3    40    41   ar
     4    41    42   ar
     5    42    32    1
     6    32    33   ar
     7    33    34   ar
     8    34    35   ar
     9    35    26    1
    10    26    27    1
    11    27    28    1
    12    28    25    1
    13    25     1    1
    14     1     2   am
    15     2     3    2
    16     2     5    1
    17     5     6   ar
    18     6     7   ar
    19     7     8   ar
    20     8    11    1
    21    11    12   ar
    22    12    13   ar
    23    13    14   ar
    24    14    15   ar
    25    15    23    1
    26    23    24    3
    27    15    16   ar
    28    16    17   ar
    29    17    20    1
    30    20    21    1
    31    20    22    1
    32    17    18   ar
    33    18    19   ar
    34     8     9   ar
    35     9    10   ar
    36    28    29    1
    37    29    30    1
    38    30    31    2
    39    35    36   ar
    40    36    37   ar
    41    42    43   ar
    42    43    39   ar
    43    37    32   ar
    44    30    26   am
    45    10     5   ar
    46    19    11   ar
    47    18    13   ar
    48     1     4    1
@<TRIPOS>MOLECULE
*****
 43 48 0 0 0
SMALL
GASTEIGER

@<TRIPOS>ATOM
      1 N         141.3105  141.6237  157.7428 N.am    1  UNL1       -0.2975
      2 C         142.6485  140.9461  157.7638 C.2     1  UNL1        0.2459
      3 O         143.8944  141.7526  157.9814 O.2     1  UNL1       -0.2701
      4 H         140.4928  141.0944  157.6000 H       1  UNL1        0.1499
      5 C         142.7406  139.4619  157.5671 C.ar    1  UNL1        0.0534
      6 C         142.5483  138.5375  158.7327 C.ar    1  UNL1        0.0047
      7 C         142.6403  137.0533  158.5361 C.ar    1  UNL1        0.0048
      8 C         142.9248  136.4934  157.1739 C.ar    1  UNL1        0.0536
      9 C         143.1172  137.4178  156.0084 C.ar    1  UNL1        0.0048
     10 C         143.0251  138.9021  156.2049 C.ar    1  UNL1        0.0047
     11 C         143.0169  135.0092  156.9773 C.ar    1  UNL1        0.2296
     12 N         143.9770  134.0863  157.6675 N.ar    1  UNL1       -0.2082
     13 C         143.7185  132.6941  157.1726 C.ar    1  UNL1        0.1192
     14 C         144.3582  131.3775  157.5003 C.ar    1  UNL1        0.0326
     15 C         143.8780  130.1234  156.8319 C.ar    1  UNL1        0.0698
     16 C         142.7582  130.1859  155.8360 C.ar    1  UNL1        0.0091
     17 C         142.1185  131.5025  155.5083 C.ar    1  UNL1        0.0143
     18 C         142.5987  132.7566  156.1766 C.ar    1  UNL1        0.1607
     19 O         142.1651  134.1874  156.0559 O.2     1  UNL1       -0.4349
     20 C         140.9987  131.5650  154.5123 C.3     1  UNL1        0.0254
     21 C         139.7982  130.6808  154.6770 C.3     1  UNL1        0.0048
     22 C         141.0793  132.5116  153.3514 C.3     1  UNL1        0.0048
     23 C         144.5177  128.8067  157.1596 C.1     1  UNL1        0.1005
     24 N         145.1574  127.4901  157.4873 N.1     1  UNL1       -0.1908
     25 C         141.2184  143.1080  157.9394 C.3     1  UNL1        0.1355
     26 N         140.6767  143.8544  161.7097 N.am    1  UNL1       -0.2059
     27 C         140.9963  142.9026  160.5953 C.3     1  UNL1        0.1483
     28 C         140.9587  143.6687  159.3063 C.3     1  UNL1        0.2101
     29 O         140.6159  145.0940  159.6240 O.3     1  UNL1       -0.4345
     30 C         140.4416  145.2088  161.1095 C.2     1  UNL1        0.4098
     31 O         140.0934  146.4585  161.8624 O.2     1  UNL1       -0.2258
     32 C         140.4608  142.8271  166.0856 C.ar    1  UNL1        0.0253
     33 C         139.2640  143.4063  165.3913 C.ar    1  UNL1        0.0049
     34 C         139.3359  143.7488  163.9327 C.ar    1  UNL1        0.0348
     35 C         140.6047  143.5120  163.1683 C.ar    1  UNL1        0.1400
     36 N         141.8016  142.9328  163.8626 N.ar    1  UNL1       -0.2287
     37 C         141.7296  142.5903  165.3213 C.ar    1  UNL1        0.1008
     38 C         140.1990  140.0925  170.5949 C.3     1  UNL1        0.0382
     39 C         140.2686  141.2278  169.6169 C.ar    1  UNL1        0.0076
     40 C         140.2879  142.6877  169.9607 C.ar    1  UNL1        0.0027
     41 C         140.3623  143.4645  168.6796 C.ar    1  UNL1        0.0067
     42 C         140.3889  142.4847  167.5442 C.ar    1  UNL1        0.0306
     43 S         140.3310  141.1022  168.1235 S.2     1  UNL1       -0.0912
@<TRIPOS>BOND
     1    38    39    1
     2    39    40   ar
     3    40    41   ar
     4    41    42   ar
     5    42    32    1
     6    32    33   ar
     7    33    34   ar
     8    34    35   ar
     9    35    26    1
    10    26    27    1
    11    27    28    1
    12    28    25    1
    13    25     1    1
    14     1     2   am
    15     2     3    2
    16     2     5    1
    17     5     6   ar
    18     6     7   ar
    19     7     8   ar
    20     8    11    1
    21    11    12   ar
    22    12    13   ar
    23    13    14   ar
    24    14    15   ar
    25    15    23    1
    26    23    24    3
    27    15    16   ar
    28    16    17   ar
    29    17    20    1
    30    20    21    1
    31    20    22    1
    32    17    18   ar
    33    18    19   ar
    34     8     9   ar
    35     9    10   ar
    36    28    29    1
    37    29    30    1
    38    30    31    2
    39    35    36   ar
    40    36    37   ar
    41    42    43   ar
    42    43    39   ar
    43    37    32   ar
    44    30    26   am
    45    10     5   ar
    46    19    11   ar
    47    18    13   ar
    48     1     4    1
@<TRIPOS>MOLECULE
*****
 43 48 0 0 0
SMALL
GASTEIGER

@<TRIPOS>ATOM
      1 N         138.5143  141.8252  157.1013 N.am    1  UNL1       -0.2975
      2 C         138.7238  140.4828  157.7369 C.2     1  UNL1        0.2459
      3 O         138.5452  139.2332  156.9266 O.2     1  UNL1       -0.2701
      4 H         138.6315  142.6454  157.6331 H       1  UNL1        0.1499
      5 C         139.1118  140.3901  159.1829 C.ar    1  UNL1        0.0534
      6 C         139.6471  139.1021  159.7346 C.ar    1  UNL1        0.0047
      7 C         140.0352  139.0093  161.1806 C.ar    1  UNL1        0.0048
      8 C         139.8880  140.2045  162.0748 C.ar    1  UNL1        0.0536
      9 C         139.3527  141.4926  161.5231 C.ar    1  UNL1        0.0048
     10 C         138.9646  141.5854  160.0771 C.ar    1  UNL1        0.0047
     11 C         140.2760  140.1118  163.5208 C.ar    1  UNL1        0.2296
     12 N         139.4522  140.5736  164.6861 N.ar    1  UNL1       -0.2082
     13 C         140.2231  140.2881  165.9408 C.ar    1  UNL1        0.1192
     14 C         139.9090  140.5269  167.3880 C.ar    1  UNL1        0.0326
     15 C         140.8953  140.1275  168.4453 C.ar    1  UNL1        0.0698
     16 C         142.1955  139.4894  168.0554 C.ar    1  UNL1        0.0091
     17 C         142.5096  139.2506  166.6082 C.ar    1  UNL1        0.0143
     18 C         141.5234  139.6500  165.5509 C.ar    1  UNL1        0.1607
     19 O         141.5561  139.5410  164.0553 O.2     1  UNL1       -0.4349
     20 C         143.8099  138.6125  166.2183 C.3     1  UNL1        0.0254
     21 C         144.3403  137.4501  167.0042 C.3     1  UNL1        0.0048
     22 C         144.5799  139.1368  165.0425 C.3     1  UNL1        0.0048
     23 C         140.5812  140.3662  169.8925 C.1     1  UNL1        0.1005
     24 N         140.2671  140.6050  171.3397 N.1     1  UNL1       -0.1908
     25 C         138.1262  141.9180  155.6553 C.3     1  UNL1        0.1355
     26 N         134.3832  140.9615  155.2812 N.am    1  UNL1       -0.2059
     27 C         135.6407  141.0384  156.0953 C.3     1  UNL1        0.1483
     28 C         136.7092  141.6528  155.2405 C.3     1  UNL1        0.2101
     29 O         136.1121  141.9556  153.8983 O.3     1  UNL1       -0.4345
     30 C         134.6745  141.5283  153.9234 C.2     1  UNL1        0.4098
     31 O         133.6994  141.6470  152.7898 O.2     1  UNL1       -0.2258
     32 C         130.4303  139.3184  156.6690 C.ar    1  UNL1        0.0253
     33 C         130.5035  140.6929  156.0729 C.ar    1  UNL1        0.0049
     34 C         131.8211  141.2406  155.6103 C.ar    1  UNL1        0.0348
     35 C         133.0656  140.4138  155.7438 C.ar    1  UNL1        0.1400
     36 N         132.9924  139.0393  156.3400 N.ar    1  UNL1       -0.2287
     37 C         131.6747  138.4916  156.8026 C.ar    1  UNL1        0.1008
     38 C         126.6456  135.9781  158.2178 C.3     1  UNL1        0.0382
     39 C         127.3731  137.2354  157.8435 C.ar    1  UNL1        0.0076
     40 C         126.7972  138.6205  157.8434 C.ar    1  UNL1        0.0027
     41 C         127.8725  139.5694  157.4034 C.ar    1  UNL1        0.0067
     42 C         129.1128  138.7707  157.1316 C.ar    1  UNL1        0.0306
     43 S         128.8041  137.3282  157.4036 S.2     1  UNL1       -0.0912
@<TRIPOS>BOND
     1    38    39    1
     2    39    40   ar
     3    40    41   ar
     4    41    42   ar
     5    42    32    1
     6    32    33   ar
     7    33    34   ar
     8    34    35   ar
     9    35    26    1
    10    26    27    1
    11    27    28    1
    12    28    25    1
    13    25     1    1
    14     1     2   am
    15     2     3    2
    16     2     5    1
    17     5     6   ar
    18     6     7   ar
    19     7     8   ar
    20     8    11    1
    21    11    12   ar
    22    12    13   ar
    23    13    14   ar
    24    14    15   ar
    25    15    23    1
    26    23    24    3
    27    15    16   ar
    28    16    17   ar
    29    17    20    1
    30    20    21    1
    31    20    22    1
    32    17    18   ar
    33    18    19   ar
    34     8     9   ar
    35     9    10   ar
    36    28    29    1
    37    29    30    1
    38    30    31    2
    39    35    36   ar
    40    36    37   ar
    41    42    43   ar
    42    43    39   ar
    43    37    32   ar
    44    30    26   am
    45    10     5   ar
    46    19    11   ar
    47    18    13   ar
    48     1     4    1
@<TRIPOS>MOLECULE
*****
 43 48 0 0 0
SMALL
GASTEIGER

@<TRIPOS>ATOM
      1 N         142.5627  143.0736  157.3752 N.am    1  UNL1       -0.2975
      2 C         142.3749  144.1084  158.4447 C.2     1  UNL1        0.2459
      3 O         142.5181  145.5643  158.1131 O.2     1  UNL1       -0.2701
      4 H         142.4687  142.1181  157.5929 H       1  UNL1        0.1499
      5 C         142.0437  143.6874  159.8458 C.ar    1  UNL1        0.0534
      6 C         141.2711  144.6083  160.7429 C.ar    1  UNL1        0.0047
      7 C         140.9399  144.1874  162.1440 C.ar    1  UNL1        0.0048
      8 C         141.3814  142.8453  162.6480 C.ar    1  UNL1        0.0536
      9 C         142.1540  141.9244  161.7509 C.ar    1  UNL1        0.0048
     10 C         142.4852  142.3454  160.3498 C.ar    1  UNL1        0.0047
     11 C         141.0502  142.4243  164.0491 C.ar    1  UNL1        0.2296
     12 N         141.4026  143.1718  165.3009 N.ar    1  UNL1       -0.2082
     13 C         140.8787  142.3912  166.4698 C.ar    1  UNL1        0.1192
     14 C         140.9300  142.6415  167.9479 C.ar    1  UNL1        0.0326
     15 C         140.3051  141.6619  168.8965 C.ar    1  UNL1        0.0698
     16 C         139.6290  140.4321  168.3671 C.ar    1  UNL1        0.0091
     17 C         139.5777  140.1818  166.8891 C.ar    1  UNL1        0.0143
     18 C         140.2026  141.1614  165.9404 C.ar    1  UNL1        0.1607
     19 O         140.3086  141.1818  164.4443 O.2     1  UNL1       -0.4349
     20 C         138.9016  138.9519  166.3597 C.3     1  UNL1        0.0254
     21 C         139.5064  138.1986  165.2122 C.3     1  UNL1        0.0048
     22 C         137.6206  138.4753  166.9778 C.3     1  UNL1        0.0048
     23 C         140.3564  141.9122  170.3747 C.1     1  UNL1        0.1005
     24 N         140.4076  142.1624  171.8528 N.1     1  UNL1       -0.1908
     25 C         142.8939  143.4946  155.9741 C.3     1  UNL1        0.1355
     26 N         146.0600  141.9388  154.3554 N.am    1  UNL1       -0.2059
     27 C         145.4139  142.8746  155.3335 C.3     1  UNL1        0.1483
     28 C         143.9268  142.7417  155.1890 C.3     1  UNL1        0.2101
     29 O         143.6539  141.7237  154.1217 O.3     1  UNL1       -0.4345
     30 C         144.9723  141.2275  153.6065 C.2     1  UNL1        0.4098
     31 O         145.1686  140.2003  152.5311 O.2     1  UNL1       -0.2258
     32 C         150.4849  141.3658  153.7706 C.ar    1  UNL1        0.0253
     33 C         149.9238  141.5103  155.1542 C.ar    1  UNL1        0.0049
     34 C         148.4488  141.7013  155.3491 C.ar    1  UNL1        0.0348
     35 C         147.5350  141.7478  154.1605 C.ar    1  UNL1        0.1400
     36 N         148.0961  141.6033  152.7769 N.ar    1  UNL1       -0.2287
     37 C         149.5712  141.4123  152.5820 C.ar    1  UNL1        0.1008
     38 C         155.6797  142.2825  153.5363 C.3     1  UNL1        0.0382
     39 C         154.3476  141.5961  153.4680 C.ar    1  UNL1        0.0076
     40 C         154.1116  140.1656  153.0835 C.ar    1  UNL1        0.0027
     41 C         152.6358  139.9052  153.1501 C.ar    1  UNL1        0.0067
     42 C         151.9599  141.1748  153.5757 C.ar    1  UNL1        0.0306
     43 S         153.0179  142.2199  153.7722 S.2     1  UNL1       -0.0912
@<TRIPOS>BOND
     1    38    39    1
     2    39    40   ar
     3    40    41   ar
     4    41    42   ar
     5    42    32    1
     6    32    33   ar
     7    33    34   ar
     8    34    35   ar
     9    35    26    1
    10    26    27    1
    11    27    28    1
    12    28    25    1
    13    25     1    1
    14     1     2   am
    15     2     3    2
    16     2     5    1
    17     5     6   ar
    18     6     7   ar
    19     7     8   ar
    20     8    11    1
    21    11    12   ar
    22    12    13   ar
    23    13    14   ar
    24    14    15   ar
    25    15    23    1
    26    23    24    3
    27    15    16   ar
    28    16    17   ar
    29    17    20    1
    30    20    21    1
    31    20    22    1
    32    17    18   ar
    33    18    19   ar
    34     8     9   ar
    35     9    10   ar
    36    28    29    1
    37    29    30    1
    38    30    31    2
    39    35    36   ar
    40    36    37   ar
    41    42    43   ar
    42    43    39   ar
    43    37    32   ar
    44    30    26   am
    45    10     5   ar
    46    19    11   ar
    47    18    13   ar
    48     1     4    1
@<TRIPOS>MOLECULE
*****
 43 48 0 0 0
SMALL
GASTEIGER

@<TRIPOS>ATOM
      1 N         139.6282  140.2366  157.7442 N.am    1  UNL1       -0.2975
      2 C         141.0580  139.8546  157.4996 C.2     1  UNL1        0.2459
      3 O         142.1411  140.8850  157.6220 O.2     1  UNL1       -0.2701
      4 H         138.9173  139.5603  157.6638 H       1  UNL1        0.1499
      5 C         141.4045  138.4420  157.1327 C.ar    1  UNL1        0.0534
      6 C         142.5883  137.7718  157.7646 C.ar    1  UNL1        0.0047
      7 C         142.9350  136.3593  157.3977 C.ar    1  UNL1        0.0048
      8 C         142.0977  135.6169  156.3988 C.ar    1  UNL1        0.0536
      9 C         140.9139  136.2871  155.7668 C.ar    1  UNL1        0.0048
     10 C         140.5672  137.6997  156.1337 C.ar    1  UNL1        0.0047
     11 C         142.4443  134.2044  156.0318 C.ar    1  UNL1        0.2296
     12 N         143.7928  133.5626  156.1719 N.ar    1  UNL1       -0.2082
     13 C         143.6850  132.1472  155.6870 C.ar    1  UNL1        0.1192
     14 C         144.6927  131.0404  155.5890 C.ar    1  UNL1        0.0326
     15 C         144.2852  129.7006  155.0514 C.ar    1  UNL1        0.0698
     16 C         142.8702  129.4677  154.6117 C.ar    1  UNL1        0.0091
     17 C         141.8625  130.5745  154.7097 C.ar    1  UNL1        0.0143
     18 C         142.2699  131.9143  155.2473 C.ar    1  UNL1        0.1607
     19 O         141.5031  133.1857  155.4604 O.2     1  UNL1       -0.4349
     20 C         140.4474  130.3416  154.2700 C.3     1  UNL1        0.0254
     21 C         139.5622  129.4161  155.0508 C.3     1  UNL1        0.0048
     22 C         139.9176  131.0342  153.0494 C.3     1  UNL1        0.0048
     23 C         145.2929  128.5937  154.9534 C.1     1  UNL1        0.1005
     24 N         146.3005  127.4869  154.8554 N.1     1  UNL1       -0.1908
     25 C         139.2817  141.6491  158.1111 C.3     1  UNL1        0.1355
     26 N         139.1856  142.0114  161.9744 N.am    1  UNL1       -0.2059
     27 C         139.6390  141.2959  160.7365 C.3     1  UNL1        0.1483
     28 C         139.0781  142.0219  159.5498 C.3     1  UNL1        0.2101
     29 O         138.2780  143.1861  160.0543 O.3     1  UNL1       -0.4345
     30 C         138.3444  143.1796  161.5528 C.2     1  UNL1        0.4098
     31 O         137.6854  144.1678  162.4688 O.2     1  UNL1       -0.2258
     32 C         140.1749  140.8562  166.2096 C.ar    1  UNL1        0.0253
     33 C         140.8368  142.0476  165.5831 C.ar    1  UNL1        0.0049
     34 C         140.5070  142.4327  164.1714 C.ar    1  UNL1        0.0348
     35 C         139.5153  141.6264  163.3861 C.ar    1  UNL1        0.1400
     36 N         138.8535  140.4350  164.0127 N.ar    1  UNL1       -0.2287
     37 C         139.1833  140.0499  165.4244 C.ar    1  UNL1        0.1008
     38 C         142.8272  139.2929  170.4994 C.3     1  UNL1        0.0382
     39 C         141.7238  139.7526  169.5931 C.ar    1  UNL1        0.0076
     40 C         140.3006  140.0046  169.9944 C.ar    1  UNL1        0.0027
     41 C         139.5472  140.4487  168.7756 C.ar    1  UNL1        0.0067
     42 C         140.5047  140.4711  167.6213 C.ar    1  UNL1        0.0306
     43 S         141.8500  140.0409  168.1266 S.2     1  UNL1       -0.0912
@<TRIPOS>BOND
     1    38    39    1
     2    39    40   ar
     3    40    41   ar
     4    41    42   ar
     5    42    32    1
     6    32    33   ar
     7    33    34   ar
     8    34    35   ar
     9    35    26    1
    10    26    27    1
    11    27    28    1
    12    28    25    1
    13    25     1    1
    14     1     2   am
    15     2     3    2
    16     2     5    1
    17     5     6   ar
    18     6     7   ar
    19     7     8   ar
    20     8    11    1
    21    11    12   ar
    22    12    13   ar
    23    13    14   ar
    24    14    15   ar
    25    15    23    1
    26    23    24    3
    27    15    16   ar
    28    16    17   ar
    29    17    20    1
    30    20    21    1
    31    20    22    1
    32    17    18   ar
    33    18    19   ar
    34     8     9   ar
    35     9    10   ar
    36    28    29    1
    37    29    30    1
    38    30    31    2
    39    35    36   ar
    40    36    37   ar
    41    42    43   ar
    42    43    39   ar
    43    37    32   ar
    44    30    26   am
    45    10     5   ar
    46    19    11   ar
    47    18    13   ar
    48     1     4    1
@<TRIPOS>MOLECULE
*****
 43 48 0 0 0
SMALL
GASTEIGER

@<TRIPOS>ATOM
      1 N         141.7673  138.7985  157.1438 N.am    1  UNL1       -0.2975
      2 C         140.5344  138.8145  157.9980 C.2     1  UNL1        0.2459
      3 O         139.2190  138.3773  157.4248 O.2     1  UNL1       -0.2701
      4 H         142.6306  139.0854  157.5200 H       1  UNL1        0.1499
      5 C         140.6169  139.2677  159.4255 C.ar    1  UNL1        0.0534
      6 C         141.4185  138.4786  160.4178 C.ar    1  UNL1        0.0047
      7 C         141.5011  138.9318  161.8454 C.ar    1  UNL1        0.0048
      8 C         140.7821  140.1742  162.2806 C.ar    1  UNL1        0.0536
      9 C         139.9805  140.9634  161.2882 C.ar    1  UNL1        0.0048
     10 C         139.8979  140.5102  159.8607 C.ar    1  UNL1        0.0047
     11 C         140.8646  140.6275  163.7081 C.ar    1  UNL1        0.2296
     12 N         140.2625  141.8805  164.2715 N.ar    1  UNL1       -0.2082
     13 C         140.5896  141.9347  165.7344 C.ar    1  UNL1        0.1192
     14 C         140.2589  142.9369  166.8002 C.ar    1  UNL1        0.0326
     15 C         140.7326  142.7197  168.2069 C.ar    1  UNL1        0.0698
     16 C         141.5368  141.5002  168.5475 C.ar    1  UNL1        0.0091
     17 C         141.8674  140.4980  167.4817 C.ar    1  UNL1        0.0143
     18 C         141.3938  140.7152  166.0751 C.ar    1  UNL1        0.1607
     19 O         141.5638  139.9073  164.8227 O.2     1  UNL1       -0.4349
     20 C         142.6717  139.2785  167.8224 C.3     1  UNL1        0.0254
     21 C         142.7359  138.7946  169.2407 C.3     1  UNL1        0.0048
     22 C         143.4118  138.5429  166.7447 C.3     1  UNL1        0.0048
     23 C         140.4019  143.7220  169.2728 C.1     1  UNL1        0.1005
     24 N         140.0713  144.7242  170.3387 N.1     1  UNL1       -0.1908
     25 C         141.6847  138.3452  155.7163 C.3     1  UNL1        0.1355
     26 N         142.5426  134.5635  155.5478 N.am    1  UNL1       -0.2059
     27 C         142.3920  135.8395  156.3218 C.3     1  UNL1        0.1483
     28 C         141.9549  136.9114  155.3678 C.3     1  UNL1        0.2101
     29 O         141.8353  136.2978  154.0043 O.3     1  UNL1       -0.4345
     30 C         142.1985  134.8467  154.1155 C.2     1  UNL1        0.4098
     31 O         142.2148  133.8532  152.9918 O.2     1  UNL1       -0.2258
     32 C         143.8049  130.5842  157.2277 C.ar    1  UNL1        0.0253
     33 C         142.6271  130.6682  156.3027 C.ar    1  UNL1        0.0049
     34 C         142.2063  131.9946  155.7427 C.ar    1  UNL1        0.0348
     35 C         142.9634  133.2371  156.1077 C.ar    1  UNL1        0.1400
     36 N         144.1412  133.1531  157.0328 N.ar    1  UNL1       -0.2287
     37 C         144.5620  131.8266  157.5928 C.ar    1  UNL1        0.1008
     38 C         144.6667  126.5910  160.5732 C.3     1  UNL1        0.0382
     39 C         144.6218  127.4224  159.3254 C.ar    1  UNL1        0.0076
     40 C         145.1246  127.0110  157.9733 C.ar    1  UNL1        0.0027
     41 C         144.8798  128.1455  157.0230 C.ar    1  UNL1        0.0067
     42 C         144.2257  129.2578  157.7876 C.ar    1  UNL1        0.0306
     43 S         144.0662  128.8109  159.2107 S.2     1  UNL1       -0.0912
@<TRIPOS>BOND
     1    38    39    1
     2    39    40   ar
     3    40    41   ar
     4    41    42   ar
     5    42    32    1
     6    32    33   ar
     7    33    34   ar
     8    34    35   ar
     9    35    26    1
    10    26    27    1
    11    27    28    1
    12    28    25    1
    13    25     1    1
    14     1     2   am
    15     2     3    2
    16     2     5    1
    17     5     6   ar
    18     6     7   ar
    19     7     8   ar
    20     8    11    1
    21    11    12   ar
    22    12    13   ar
    23    13    14   ar
    24    14    15   ar
    25    15    23    1
    26    23    24    3
    27    15    16   ar
    28    16    17   ar
    29    17    20    1
    30    20    21    1
    31    20    22    1
    32    17    18   ar
    33    18    19   ar
    34     8     9   ar
    35     9    10   ar
    36    28    29    1
    37    29    30    1
    38    30    31    2
    39    35    36   ar
    40    36    37   ar
    41    42    43   ar
    42    43    39   ar
    43    37    32   ar
    44    30    26   am
    45    10     5   ar
    46    19    11   ar
    47    18    13   ar
    48     1     4    1
@<TRIPOS>MOLECULE
*****
 43 48 0 0 0
SMALL
GASTEIGER

@<TRIPOS>ATOM
      1 N         141.1008  137.7739  156.3988 N.am    1  UNL1       -0.2975
      2 C         142.3175  138.2087  157.1607 C.2     1  UNL1        0.2459
      3 O         143.6793  138.0532  156.5514 O.2     1  UNL1       -0.2701
      4 H         140.2070  137.8760  156.7987 H       1  UNL1        0.1499
      5 C         142.1723  138.7991  158.5320 C.ar    1  UNL1        0.0534
      6 C         143.3908  139.0809  159.3600 C.ar    1  UNL1        0.0047
      7 C         143.2458  139.6713  160.7314 C.ar    1  UNL1        0.0048
      8 C         141.8821  139.9798  161.2746 C.ar    1  UNL1        0.0536
      9 C         140.6635  139.6980  160.4465 C.ar    1  UNL1        0.0048
     10 C         140.8086  139.1076  159.0752 C.ar    1  UNL1        0.0047
     11 C         141.7369  140.5702  162.6459 C.ar    1  UNL1        0.2296
     12 N         142.6775  140.3684  163.7968 N.ar    1  UNL1       -0.2082
     13 C         142.1476  141.1395  164.9692 C.ar    1  UNL1        0.1192
     14 C         142.6559  141.3116  166.3698 C.ar    1  UNL1        0.0326
     15 C         141.8961  142.1621  167.3442 C.ar    1  UNL1        0.0698
     16 C         140.6280  142.8403  166.9180 C.ar    1  UNL1        0.0091
     17 C         140.1196  142.6682  165.5173 C.ar    1  UNL1        0.0143
     18 C         140.8794  141.8178  164.5429 C.ar    1  UNL1        0.1607
     19 O         140.6256  141.4659  163.1070 O.2     1  UNL1       -0.4349
     20 C         138.8515  143.3465  165.0910 C.3     1  UNL1        0.0254
     21 C         138.6822  144.8218  165.3031 C.3     1  UNL1        0.0048
     22 C         137.7526  142.5496  164.4527 C.3     1  UNL1        0.0048
     23 C         142.4044  142.3342  168.7450 C.1     1  UNL1        0.1005
     24 N         142.9128  142.5063  170.1457 N.1     1  UNL1       -0.1908
     25 C         141.2459  137.1835  155.0275 C.3     1  UNL1        0.1355
     26 N         142.4767  133.5173  155.3582 N.am    1  UNL1       -0.2059
     27 C         142.1460  134.8481  155.9661 C.3     1  UNL1        0.1483
     28 C         141.6790  135.7563  154.8674 C.3     1  UNL1        0.2101
     29 O         141.7212  134.9868  153.5805 O.3     1  UNL1       -0.4345
     30 C         142.2142  133.6030  153.8839 C.2     1  UNL1        0.4098
     31 O         142.4103  132.4987  152.8877 O.2     1  UNL1       -0.2258
     32 C         143.9909  129.9023  157.5694 C.ar    1  UNL1        0.0253
     33 C         144.6247  131.2422  157.7996 C.ar    1  UNL1        0.0049
     34 C         144.1201  132.4472  157.0625 C.ar    1  UNL1        0.0348
     35 C         142.9814  132.3123  156.0952 C.ar    1  UNL1        0.1400
     36 N         142.3476  130.9724  155.8651 N.ar    1  UNL1       -0.2287
     37 C         142.8523  129.7674  156.6022 C.ar    1  UNL1        0.1008
     38 C         145.0582  126.4570  161.4258 C.3     1  UNL1        0.0382
     39 C         144.9862  127.1137  160.0790 C.ar    1  UNL1        0.0076
     40 C         145.5583  126.5724  158.8024 C.ar    1  UNL1        0.0027
     41 C         145.2551  127.5512  157.7069 C.ar    1  UNL1        0.0067
     42 C         144.4956  128.6973  158.3065 C.ar    1  UNL1        0.0306
     43 S         144.3294  128.4269  159.7726 S.2     1  UNL1       -0.0912
@<TRIPOS>BOND
     1    38    39    1
     2    39    40   ar
     3    40    41   ar
     4    41    42   ar
     5    42    32    1
     6    32    33   ar
     7    33    34   ar
     8    34    35   ar
     9    35    26    1
    10    26    27    1
    11    27    28    1
    12    28    25    1
    13    25     1    1
    14     1     2   am
    15     2     3    2
    16     2     5    1
    17     5     6   ar
    18     6     7   ar
    19     7     8   ar
    20     8    11    1
    21    11    12   ar
    22    12    13   ar
    23    13    14   ar
    24    14    15   ar
    25    15    23    1
    26    23    24    3
    27    15    16   ar
    28    16    17   ar
    29    17    20    1
    30    20    21    1
    31    20    22    1
    32    17    18   ar
    33    18    19   ar
    34     8     9   ar
    35     9    10   ar
    36    28    29    1
    37    29    30    1
    38    30    31    2
    39    35    36   ar
    40    36    37   ar
    41    42    43   ar
    42    43    39   ar
    43    37    32   ar
    44    30    26   am
    45    10     5   ar
    46    19    11   ar
    47    18    13   ar
    48     1     4    1
@<TRIPOS>MOLECULE
*****
 43 48 0 0 0
SMALL
GASTEIGER

@<TRIPOS>ATOM
      1 N         141.8468  139.8810  158.6031 N.am    1  UNL1       -0.2975
      2 C         142.7178  139.6010  159.7918 C.2     1  UNL1        0.2459
      3 O         144.1540  139.2157  159.5952 O.2     1  UNL1       -0.2701
      4 H         140.9041  140.1339  158.7322 H       1  UNL1        0.1499
      5 C         142.1524  139.7064  161.1772 C.ar    1  UNL1        0.0534
      6 C         143.0715  139.7329  162.3623 C.ar    1  UNL1        0.0047
      7 C         142.5062  139.8383  163.7477 C.ar    1  UNL1        0.0048
      8 C         141.0218  139.9172  163.9480 C.ar    1  UNL1        0.0536
      9 C         140.1027  139.8907  162.7629 C.ar    1  UNL1        0.0048
     10 C         140.6679  139.7853  161.3775 C.ar    1  UNL1        0.0047
     11 C         140.4564  140.0226  165.3334 C.ar    1  UNL1        0.2296
     12 N         139.3229  139.2111  165.8872 N.ar    1  UNL1       -0.2082
     13 C         139.0913  139.6450  167.3042 C.ar    1  UNL1        0.1192
     14 C         138.1065  139.1964  168.3430 C.ar    1  UNL1        0.0326
     15 C         138.1122  139.8276  169.7038 C.ar    1  UNL1        0.0698
     16 C         139.1024  140.9071  170.0258 C.ar    1  UNL1        0.0091
     17 C         140.0872  141.3557  168.9870 C.ar    1  UNL1        0.0143
     18 C         140.0816  140.7246  167.6263 C.ar    1  UNL1        0.1607
     19 O         140.9253  140.9580  166.4082 O.2     1  UNL1       -0.4349
     20 C         141.0775  142.4353  169.3090 C.3     1  UNL1        0.0254
     21 C         142.5483  142.1557  169.2169 C.3     1  UNL1        0.0048
     22 C         140.5970  143.7946  169.7232 C.3     1  UNL1        0.0048
     23 C         137.1273  139.3790  170.7426 C.1     1  UNL1        0.1005
     24 N         136.1426  138.9305  171.7814 N.1     1  UNL1       -0.1908
     25 C         142.4122  139.7756  157.2177 C.3     1  UNL1        0.1355
     26 N         142.5710  136.0741  156.0606 N.am    1  UNL1       -0.2059
     27 C         142.6629  137.1156  157.1361 C.3     1  UNL1        0.1483
     28 C         142.4146  138.4545  156.5072 C.3     1  UNL1        0.2101
     29 O         142.1692  138.2405  155.0430 O.3     1  UNL1       -0.4345
     30 C         142.2659  136.7692  154.7670 C.2     1  UNL1        0.4098
     31 O         142.0885  136.1091  153.4318 O.2     1  UNL1       -0.2258
     32 C         143.1151  131.6419  156.6173 C.ar    1  UNL1        0.0253
     33 C         142.0177  132.1577  155.7342 C.ar    1  UNL1        0.0049
     34 C         141.8364  133.6351  155.5487 C.ar    1  UNL1        0.0348
     35 C         142.7524  134.5967  156.2462 C.ar    1  UNL1        0.1400
     36 N         143.8497  134.0808  157.1292 N.ar    1  UNL1       -0.2287
     37 C         144.0310  132.6034  157.3148 C.ar    1  UNL1        0.1008
     38 C         142.5253  126.4142  156.1659 C.3     1  UNL1        0.0382
     39 C         143.0253  127.7616  156.5954 C.ar    1  UNL1        0.0076
     40 C         144.1257  128.0204  157.5814 C.ar    1  UNL1        0.0027
     41 C         144.2932  129.5056  157.7096 C.ar    1  UNL1        0.0067
     42 C         143.2964  130.1645  156.8028 C.ar    1  UNL1        0.0306
     43 S         142.5128  129.0866  156.1142 S.2     1  UNL1       -0.0912
@<TRIPOS>BOND
     1    38    39    1
     2    39    40   ar
     3    40    41   ar
     4    41    42   ar
     5    42    32    1
     6    32    33   ar
     7    33    34   ar
     8    34    35   ar
     9    35    26    1
    10    26    27    1
    11    27    28    1
    12    28    25    1
    13    25     1    1
    14     1     2   am
    15     2     3    2
    16     2     5    1
    17     5     6   ar
    18     6     7   ar
    19     7     8   ar
    20     8    11    1
    21    11    12   ar
    22    12    13   ar
    23    13    14   ar
    24    14    15   ar
    25    15    23    1
    26    23    24    3
    27    15    16   ar
    28    16    17   ar
    29    17    20    1
    30    20    21    1
    31    20    22    1
    32    17    18   ar
    33    18    19   ar
    34     8     9   ar
    35     9    10   ar
    36    28    29    1
    37    29    30    1
    38    30    31    2
    39    35    36   ar
    40    36    37   ar
    41    42    43   ar
    42    43    39   ar
    43    37    32   ar
    44    30    26   am
    45    10     5   ar
    46    19    11   ar
    47    18    13   ar
    48     1     4    1
