@<TRIPOS>MOLECULE
*****
 41 45 0 0 0
SMALL
GASTEIGER

@<TRIPOS>ATOM
      1 C         142.5768  139.5275  158.7873 C.ar    1  UNL1        0.0043
      2 C         143.5142  140.5960  158.3084 C.ar    1  UNL1        0.0206
      3 C         143.9711  141.6703  159.2504 C.ar    1  UNL1        0.1006
      4 N         143.4905  141.6760  160.6712 N.ar    1  UNL1       -0.2252
      5 C         142.5530  140.6074  161.1502 C.ar    1  UNL1        0.1652
      6 C         142.0962  139.5332  160.2083 C.ar    1  UNL1        0.0430
      7 N         142.0724  140.6131  162.5712 N.ar    1  UNL1       -0.1768
      8 N         140.8000  141.3218  162.9297 N.ar    1  UNL1       -0.1596
      9 C         140.3194  141.3275  164.3506 C.ar    1  UNL1        0.1208
     10 C         141.1113  140.6246  165.4130 C.ar    1  UNL1        0.0274
     11 C         140.6307  140.6303  166.8339 C.ar    1  UNL1       -0.0024
     12 C         141.4226  139.9273  167.8963 C.ar    1  UNL1       -0.0205
     13 C         142.6951  139.2186  167.5377 C.ar    1  UNL1        0.0255
     14 C         143.1757  139.2129  166.1168 C.ar    1  UNL1        0.1445
     15 F         144.4481  138.5042  165.7583 F       1  UNL1       -0.2040
     16 C         142.3838  139.9159  165.0545 C.ar    1  UNL1        0.0869
     17 C         142.8643  139.9102  163.6336 C.ar    1  UNL1        0.2838
     18 O         144.1368  139.2014  163.2750 O.2     1  UNL1       -0.2650
     19 C         140.9421  139.9330  169.3172 C.3     1  UNL1        0.0190
     20 C         139.5664  140.3066  168.8505 C.3     1  UNL1        0.0044
     21 C         142.3178  139.5594  169.7840 C.3     1  UNL1        0.0044
     22 C         140.4615  139.9387  170.7382 C.3     1  UNL1        0.0044
     23 C         139.0790  137.6914  155.4118 C.3     1  UNL1        0.1336
     24 N         140.3710  137.5352  156.1576 N.ar    1  UNL1       -0.2911
     25 C         140.8279  138.6094  157.0995 C.ar    1  UNL1        0.0784
     26 C         142.1199  138.4532  157.8454 C.ar    1  UNL1        0.0186
     27 C         142.9551  137.2228  157.6493 C.ar    1  UNL1        0.0210
     28 C         142.4982  136.1485  156.7073 C.ar    1  UNL1        0.1073
     29 C         141.2062  136.3047  155.9615 C.ar    1  UNL1        0.2745
     30 O         140.7494  135.2305  155.0196 O.2     1  UNL1       -0.2656
     31 N         143.3334  134.9181  156.5112 N.am    1  UNL1       -0.2801
     32 C         143.7244  134.0809  157.6928 C.2     1  UNL1        0.2285
     33 O         143.2803  134.4742  159.0705 O.2     1  UNL1       -0.2747
     34 H         143.6249  134.6600  155.6070 H       1  UNL1        0.1550
     35 C         144.5596  132.8504  157.4968 C.3     1  UNL1        0.1120
     36 C         145.5417  131.8488  158.0280 C.3     1  UNL1        0.0476
     37 C         145.0242  131.7209  156.6260 C.3     1  UNL1        0.1701
     38 F         144.9936  130.9949  155.3138 F       1  UNL1       -0.2368
     39 C         141.1587  138.4647  160.6872 C.3     1  UNL1        0.1667
     40 O         141.6891  137.2917  161.4573 O.3     1  UNL1       -0.3771
     41 H         142.2615  136.7597  160.8826 H       1  UNL1        0.2109
@<TRIPOS>BOND
     1    23    24    1
     2    24    25   ar
     3    25    26   ar
     4    26     1    1
     5     1     2   ar
     6     2     3   ar
     7     3     4   ar
     8     4     5   ar
     9     5     7    1
    10     7     8   ar
    11     8     9   ar
    12     9    10   ar
    13    10    11   ar
    14    11    12   ar
    15    12    19    1
    16    19    20    1
    17    19    21    1
    18    19    22    1
    19    12    13   ar
    20    13    14   ar
    21    14    15    1
    22    14    16   ar
    23    16    17   ar
    24    17    18    2
    25     5     6   ar
    26     6    39    1
    27    39    40    1
    28    26    27   ar
    29    27    28   ar
    30    28    31    1
    31    31    32   am
    32    32    33    2
    33    35    32    1
    34    35    36    1
    35    36    37    1
    36    37    38    1
    37    28    29   ar
    38    29    30    2
    39    29    24   ar
    40     6     1   ar
    41    37    35    1
    42    17     7   ar
    43    16    10   ar
    44    40    41    1
    45    31    34    1
@<TRIPOS>MOLECULE
*****
 41 45 0 0 0
SMALL
GASTEIGER

@<TRIPOS>ATOM
      1 C         139.3642  143.1414  158.5782 C.ar    1  UNL1        0.0043
      2 C         139.9506  144.3989  158.0083 C.ar    1  UNL1        0.0206
      3 C         140.5856  145.4093  158.9171 C.ar    1  UNL1        0.1006
      4 N         140.6343  145.1621  160.3958 N.ar    1  UNL1       -0.2252
      5 C         140.0479  143.9046  160.9657 C.ar    1  UNL1        0.1652
      6 C         139.4129  142.8942  160.0569 C.ar    1  UNL1        0.0430
      7 N         140.0966  143.6575  162.4445 N.ar    1  UNL1       -0.1768
      8 N         138.8728  143.8800  163.2827 N.ar    1  UNL1       -0.1596
      9 C         138.9215  143.6329  164.7614 C.ar    1  UNL1        0.1208
     10 C         140.1940  143.1632  165.4018 C.ar    1  UNL1        0.0274
     11 C         140.2427  142.9160  166.8805 C.ar    1  UNL1       -0.0024
     12 C         141.5152  142.4463  167.5209 C.ar    1  UNL1       -0.0205
     13 C         142.7390  142.2238  166.6826 C.ar    1  UNL1        0.0255
     14 C         142.6903  142.4709  165.2039 C.ar    1  UNL1        0.1445
     15 F         143.9141  142.2484  164.3656 F       1  UNL1       -0.2040
     16 C         141.4178  142.9406  164.5635 C.ar    1  UNL1        0.0869
     17 C         141.3691  143.1878  163.0848 C.ar    1  UNL1        0.2838
     18 O         142.5929  142.9652  162.2465 O.2     1  UNL1       -0.2650
     19 C         141.5639  142.1992  168.9996 C.3     1  UNL1        0.0190
     20 C         140.5122  143.2479  169.2095 C.3     1  UNL1        0.0044
     21 C         142.6156  141.1505  168.7897 C.3     1  UNL1        0.0044
     22 C         141.6126  141.9521  170.4784 C.3     1  UNL1        0.0044
     23 C         139.6706  138.7469  155.8224 C.3     1  UNL1        0.1336
     24 N         138.8824  139.9338  156.2915 N.ar    1  UNL1       -0.2911
     25 C         139.5174  140.9441  157.2003 C.ar    1  UNL1        0.0784
     26 C         138.7292  142.1310  157.6694 C.ar    1  UNL1        0.0186
     27 C         137.3061  142.3075  157.2298 C.ar    1  UNL1        0.0210
     28 C         136.6710  141.2971  156.3210 C.ar    1  UNL1        0.1073
     29 C         137.4592  140.1103  155.8519 C.ar    1  UNL1        0.2745
     30 O         136.8242  139.0999  154.9431 O.2     1  UNL1       -0.2656
     31 N         135.2478  141.4737  155.8814 N.am    1  UNL1       -0.2801
     32 C         134.1641  140.6379  156.4953 C.2     1  UNL1        0.2285
     33 O         134.5035  139.6256  157.5489 O.2     1  UNL1       -0.2747
     34 H         135.0250  142.1380  155.1898 H       1  UNL1        0.1550
     35 C         132.7408  140.8144  156.0557 C.3     1  UNL1        0.1120
     36 C         131.7165  141.5320  155.2276 C.3     1  UNL1        0.0476
     37 C         131.3000  140.4025  156.1224 C.3     1  UNL1        0.1701
     38 F         130.2277  139.5126  156.6775 F       1  UNL1       -0.2368
     39 C         138.8266  141.6367  160.6268 C.3     1  UNL1        0.1667
     40 O         137.5937  141.7030  161.4787 O.3     1  UNL1       -0.3771
     41 H         137.7942  142.1760  162.3015 H       1  UNL1        0.2109
@<TRIPOS>BOND
     1    23    24    1
     2    24    25   ar
     3    25    26   ar
     4    26     1    1
     5     1     2   ar
     6     2     3   ar
     7     3     4   ar
     8     4     5   ar
     9     5     7    1
    10     7     8   ar
    11     8     9   ar
    12     9    10   ar
    13    10    11   ar
    14    11    12   ar
    15    12    19    1
    16    19    20    1
    17    19    21    1
    18    19    22    1
    19    12    13   ar
    20    13    14   ar
    21    14    15    1
    22    14    16   ar
    23    16    17   ar
    24    17    18    2
    25     5     6   ar
    26     6    39    1
    27    39    40    1
    28    26    27   ar
    29    27    28   ar
    30    28    31    1
    31    31    32   am
    32    32    33    2
    33    35    32    1
    34    35    36    1
    35    36    37    1
    36    37    38    1
    37    28    29   ar
    38    29    30    2
    39    29    24   ar
    40     6     1   ar
    41    37    35    1
    42    17     7   ar
    43    16    10   ar
    44    40    41    1
    45    31    34    1
@<TRIPOS>MOLECULE
*****
 41 45 0 0 0
SMALL
GASTEIGER

@<TRIPOS>ATOM
      1 C         140.2158  139.7416  159.1178 C.ar    1  UNL1        0.0043
      2 C         138.8161  139.8105  158.5829 C.ar    1  UNL1        0.0206
      3 C         137.6972  140.2757  159.4672 C.ar    1  UNL1        0.1006
      4 N         137.9781  140.6719  160.8863 N.ar    1  UNL1       -0.2252
      5 C         139.3778  140.6030  161.4213 C.ar    1  UNL1        0.1652
      6 C         140.4966  140.1379  160.5371 C.ar    1  UNL1        0.0430
      7 N         139.6586  140.9993  162.8405 N.ar    1  UNL1       -0.1768
      8 N         140.3280  142.3089  163.1351 N.ar    1  UNL1       -0.1596
      9 C         140.6088  142.7051  164.5543 C.ar    1  UNL1        0.1208
     10 C         140.2202  141.7918  165.6789 C.ar    1  UNL1        0.0274
     11 C         140.5010  142.1880  167.0981 C.ar    1  UNL1       -0.0024
     12 C         140.1123  141.2747  168.2228 C.ar    1  UNL1       -0.0205
     13 C         139.4428  139.9651  167.9281 C.ar    1  UNL1        0.0255
     14 C         139.1620  139.5688  166.5089 C.ar    1  UNL1        0.1445
     15 F         138.4926  138.2593  166.2144 F       1  UNL1       -0.2040
     16 C         139.5507  140.4822  165.3843 C.ar    1  UNL1        0.0869
     17 C         139.2699  140.0860  163.9651 C.ar    1  UNL1        0.2838
     18 O         138.6004  138.7764  163.6705 O.2     1  UNL1       -0.2650
     19 C         140.3931  141.6709  169.6419 C.3     1  UNL1        0.0190
     20 C         140.3717  140.2274  170.0492 C.3     1  UNL1        0.0044
     21 C         140.4144  143.1144  169.2347 C.3     1  UNL1        0.0044
     22 C         140.6739  142.0671  171.0612 C.3     1  UNL1        0.0044
     23 C         144.0165  140.8002  155.7365 C.3     1  UNL1        0.1336
     24 N         143.2349  139.8058  156.5429 N.ar    1  UNL1       -0.2911
     25 C         142.1161  140.2709  157.4271 C.ar    1  UNL1        0.0784
     26 C         141.3346  139.2765  158.2336 C.ar    1  UNL1        0.0186
     27 C         141.6719  137.8170  158.1559 C.ar    1  UNL1        0.0210
     28 C         142.7907  137.3519  157.2717 C.ar    1  UNL1        0.1073
     29 C         143.5723  138.3462  156.4652 C.ar    1  UNL1        0.2745
     30 O         144.6911  137.8811  155.5810 O.2     1  UNL1       -0.2656
     31 N         143.1280  135.8924  157.1940 N.am    1  UNL1       -0.2801
     32 C         142.4370  135.0153  156.1924 C.2     1  UNL1        0.2285
     33 O         141.4087  135.5976  155.2686 O.2     1  UNL1       -0.2747
     34 H         143.8029  135.5101  157.8003 H       1  UNL1        0.1550
     35 C         142.7743  133.5557  156.1147 C.3     1  UNL1        0.1120
     36 C         142.3356  132.1233  156.0389 C.3     1  UNL1        0.0476
     37 C         143.7971  132.4601  156.0557 C.3     1  UNL1        0.1701
     38 F         145.2315  132.0220  156.0314 F       1  UNL1       -0.2368
     39 C         141.8963  140.0691  161.0720 C.3     1  UNL1        0.1667
     40 O         142.6870  141.3286  161.2682 O.3     1  UNL1       -0.3771
     41 H         142.8625  141.7377  160.4064 H       1  UNL1        0.2109
@<TRIPOS>BOND
     1    23    24    1
     2    24    25   ar
     3    25    26   ar
     4    26     1    1
     5     1     2   ar
     6     2     3   ar
     7     3     4   ar
     8     4     5   ar
     9     5     7    1
    10     7     8   ar
    11     8     9   ar
    12     9    10   ar
    13    10    11   ar
    14    11    12   ar
    15    12    19    1
    16    19    20    1
    17    19    21    1
    18    19    22    1
    19    12    13   ar
    20    13    14   ar
    21    14    15    1
    22    14    16   ar
    23    16    17   ar
    24    17    18    2
    25     5     6   ar
    26     6    39    1
    27    39    40    1
    28    26    27   ar
    29    27    28   ar
    30    28    31    1
    31    31    32   am
    32    32    33    2
    33    35    32    1
    34    35    36    1
    35    36    37    1
    36    37    38    1
    37    28    29   ar
    38    29    30    2
    39    29    24   ar
    40     6     1   ar
    41    37    35    1
    42    17     7   ar
    43    16    10   ar
    44    40    41    1
    45    31    34    1
@<TRIPOS>MOLECULE
*****
 41 45 0 0 0
SMALL
GASTEIGER

@<TRIPOS>ATOM
      1 C         140.1411  139.2730  158.8915 C.ar    1  UNL1        0.0043
      2 C         138.8855  139.8140  158.2745 C.ar    1  UNL1        0.0206
      3 C         137.7576  140.2743  159.1498 C.ar    1  UNL1        0.1006
      4 N         137.8854  140.1936  160.6421 N.ar    1  UNL1       -0.2252
      5 C         139.1410  139.6526  161.2592 C.ar    1  UNL1        0.1652
      6 C         140.2689  139.1923  160.3839 C.ar    1  UNL1        0.0430
      7 N         139.2688  139.5720  162.7516 N.ar    1  UNL1       -0.1768
      8 N         138.8871  138.3118  163.4700 N.ar    1  UNL1       -0.1596
      9 C         139.0149  138.2312  164.9624 C.ar    1  UNL1        0.1208
     10 C         139.5244  139.4108  165.7363 C.ar    1  UNL1        0.0274
     11 C         139.6522  139.3302  167.2287 C.ar    1  UNL1       -0.0024
     12 C         140.1617  140.5098  168.0027 C.ar    1  UNL1       -0.0205
     13 C         140.5434  141.7700  167.2842 C.ar    1  UNL1        0.0255
     14 C         140.4156  141.8506  165.7918 C.ar    1  UNL1        0.1445
     15 F         140.7973  143.1108  165.0734 F       1  UNL1       -0.2040
     16 C         139.9061  140.6710  165.0179 C.ar    1  UNL1        0.0869
     17 C         139.7783  140.7516  163.5256 C.ar    1  UNL1        0.2838
     18 O         140.1600  142.0118  162.8071 O.2     1  UNL1       -0.2650
     19 C         140.2895  140.4292  169.4950 C.3     1  UNL1        0.0190
     20 C         141.7806  140.5366  169.3731 C.3     1  UNL1        0.0044
     21 C         138.7983  140.3217  169.6169 C.3     1  UNL1        0.0044
     22 C         140.4173  140.3486  170.9874 C.3     1  UNL1        0.0044
     23 C         144.6510  140.2223  156.4917 C.3     1  UNL1        0.1336
     24 N         143.5238  139.2874  156.8163 N.ar    1  UNL1       -0.2911
     25 C         142.3960  139.7477  157.6916 C.ar    1  UNL1        0.0784
     26 C         141.2689  138.8127  158.0163 C.ar    1  UNL1        0.0186
     27 C         141.2695  137.4174  157.4657 C.ar    1  UNL1        0.0210
     28 C         142.3974  136.9571  156.5904 C.ar    1  UNL1        0.1073
     29 C         143.5245  137.8920  156.2657 C.ar    1  UNL1        0.2745
     30 O         144.6523  137.4317  155.3904 O.2     1  UNL1       -0.2656
     31 N         142.3981  135.5618  156.0398 N.am    1  UNL1       -0.2801
     32 C         142.9837  134.4388  156.8433 C.2     1  UNL1        0.2285
     33 O         143.5687  134.7110  158.1974 O.2     1  UNL1       -0.2747
     34 H         142.0141  135.3831  155.1510 H       1  UNL1        0.1550
     35 C         142.9844  133.0434  156.2927 C.3     1  UNL1        0.1120
     36 C         142.2374  131.8566  155.7604 C.3     1  UNL1        0.0476
     37 C         143.7326  131.8135  155.8714 C.3     1  UNL1        0.1701
     38 F         145.0279  131.0785  155.6924 F       1  UNL1       -0.2368
     39 C         141.5245  138.6514  161.0010 C.3     1  UNL1        0.1667
     40 O         141.4975  137.3407  161.7301 O.3     1  UNL1       -0.3771
     41 H         140.9487  137.4245  162.5256 H       1  UNL1        0.2109
@<TRIPOS>BOND
     1    23    24    1
     2    24    25   ar
     3    25    26   ar
     4    26     1    1
     5     1     2   ar
     6     2     3   ar
     7     3     4   ar
     8     4     5   ar
     9     5     7    1
    10     7     8   ar
    11     8     9   ar
    12     9    10   ar
    13    10    11   ar
    14    11    12   ar
    15    12    19    1
    16    19    20    1
    17    19    21    1
    18    19    22    1
    19    12    13   ar
    20    13    14   ar
    21    14    15    1
    22    14    16   ar
    23    16    17   ar
    24    17    18    2
    25     5     6   ar
    26     6    39    1
    27    39    40    1
    28    26    27   ar
    29    27    28   ar
    30    28    31    1
    31    31    32   am
    32    32    33    2
    33    35    32    1
    34    35    36    1
    35    36    37    1
    36    37    38    1
    37    28    29   ar
    38    29    30    2
    39    29    24   ar
    40     6     1   ar
    41    37    35    1
    42    17     7   ar
    43    16    10   ar
    44    40    41    1
    45    31    34    1
@<TRIPOS>MOLECULE
*****
 41 45 0 0 0
SMALL
GASTEIGER

@<TRIPOS>ATOM
      1 C         139.9706  139.4015  159.3036 C.ar    1  UNL1        0.0043
      2 C         138.6773  139.8768  158.7108 C.ar    1  UNL1        0.0206
      3 C         137.5800  140.3732  159.6050 C.ar    1  UNL1        0.1006
      4 N         137.7760  140.3943  161.0919 N.ar    1  UNL1       -0.2252
      5 C         139.0693  139.9189  161.6848 C.ar    1  UNL1        0.1652
      6 C         140.1666  139.4226  160.7906 C.ar    1  UNL1        0.0430
      7 N         139.2653  139.9400  163.1718 N.ar    1  UNL1       -0.1768
      8 N         139.0069  138.7031  163.9799 N.ar    1  UNL1       -0.1596
      9 C         139.2029  138.7242  165.4669 C.ar    1  UNL1        0.1208
     10 C         139.6573  139.9822  166.1457 C.ar    1  UNL1        0.0274
     11 C         139.8533  140.0033  167.6328 C.ar    1  UNL1       -0.0024
     12 C         140.3077  141.2614  168.3116 C.ar    1  UNL1       -0.0205
     13 C         140.5661  142.4984  167.5033 C.ar    1  UNL1        0.0255
     14 C         140.3701  142.4773  166.0164 C.ar    1  UNL1        0.1445
     15 F         140.6285  143.7142  165.2083 F       1  UNL1       -0.2040
     16 C         139.9157  141.2192  165.3376 C.ar    1  UNL1        0.0869
     17 C         139.7197  141.1981  163.8506 C.ar    1  UNL1        0.2838
     18 O         139.9781  142.4351  163.0424 O.2     1  UNL1       -0.2650
     19 C         140.5037  141.2825  169.7985 C.3     1  UNL1        0.0190
     20 C         140.1642  142.7433  169.8225 C.3     1  UNL1        0.0044
     21 C         140.8433  139.8217  169.7745 C.3     1  UNL1        0.0044
     22 C         140.6997  141.3037  171.2856 C.3     1  UNL1        0.0044
     23 C         141.7810  135.8957  155.9225 C.3     1  UNL1        0.1336
     24 N         141.9731  137.1523  156.7189 N.ar    1  UNL1       -0.2911
     25 C         140.8758  137.6486  157.6130 C.ar    1  UNL1        0.0784
     26 C         141.0679  138.9051  158.4094 C.ar    1  UNL1        0.0186
     27 C         142.3573  139.6653  158.3117 C.ar    1  UNL1        0.0210
     28 C         143.4547  139.1689  157.4175 C.ar    1  UNL1        0.1073
     29 C         143.2626  137.9124  156.6211 C.ar    1  UNL1        0.2745
     30 O         144.3598  137.4161  155.7269 O.2     1  UNL1       -0.2656
     31 N         144.7440  139.9291  157.3197 N.am    1  UNL1       -0.2801
     32 C         144.9552  140.9071  156.2022 C.2     1  UNL1        0.2285
     33 O         143.8770  141.1249  155.1824 O.2     1  UNL1       -0.2747
     34 H         145.4517  139.7862  157.9891 H       1  UNL1        0.1550
     35 C         146.2447  141.6673  156.1044 C.3     1  UNL1        0.1120
     36 C         147.4676  142.0562  155.3279 C.3     1  UNL1        0.0476
     37 C         147.2550  142.5950  156.7115 C.3     1  UNL1        0.1701
     38 F         147.7155  143.4416  157.8609 F       1  UNL1       -0.2368
     39 C         141.4599  138.9473  161.3834 C.3     1  UNL1        0.1667
     40 O         141.6779  137.4842  161.6325 O.3     1  UNL1       -0.3771
     41 H         141.0631  137.1777  162.3173 H       1  UNL1        0.2109
@<TRIPOS>BOND
     1    23    24    1
     2    24    25   ar
     3    25    26   ar
     4    26     1    1
     5     1     2   ar
     6     2     3   ar
     7     3     4   ar
     8     4     5   ar
     9     5     7    1
    10     7     8   ar
    11     8     9   ar
    12     9    10   ar
    13    10    11   ar
    14    11    12   ar
    15    12    19    1
    16    19    20    1
    17    19    21    1
    18    19    22    1
    19    12    13   ar
    20    13    14   ar
    21    14    15    1
    22    14    16   ar
    23    16    17   ar
    24    17    18    2
    25     5     6   ar
    26     6    39    1
    27    39    40    1
    28    26    27   ar
    29    27    28   ar
    30    28    31    1
    31    31    32   am
    32    32    33    2
    33    35    32    1
    34    35    36    1
    35    36    37    1
    36    37    38    1
    37    28    29   ar
    38    29    30    2
    39    29    24   ar
    40     6     1   ar
    41    37    35    1
    42    17     7   ar
    43    16    10   ar
    44    40    41    1
    45    31    34    1
@<TRIPOS>MOLECULE
*****
 41 45 0 0 0
SMALL
GASTEIGER

@<TRIPOS>ATOM
      1 C         140.5988  140.9252  159.0032 C.ar    1  UNL1        0.0043
      2 C         139.4410  141.5984  158.3276 C.ar    1  UNL1        0.0206
      3 C         138.4920  142.4405  159.1278 C.ar    1  UNL1        0.1006
      4 N         138.7007  142.6093  160.6035 N.ar    1  UNL1       -0.2252
      5 C         139.8584  141.9362  161.2792 C.ar    1  UNL1        0.1652
      6 C         140.8075  141.0941  160.4790 C.ar    1  UNL1        0.0430
      7 N         140.0671  142.1051  162.7550 N.ar    1  UNL1       -0.1768
      8 N         140.7509  143.3325  163.2801 N.ar    1  UNL1       -0.1596
      9 C         140.9596  143.5013  164.7559 C.ar    1  UNL1        0.1208
     10 C         140.4844  142.4427  165.7065 C.ar    1  UNL1        0.0274
     11 C         140.6931  142.6116  167.1823 C.ar    1  UNL1       -0.0024
     12 C         140.2179  141.5531  168.1329 C.ar    1  UNL1       -0.0205
     13 C         139.5341  140.3256  167.6077 C.ar    1  UNL1        0.0255
     14 C         139.3255  140.1568  166.1320 C.ar    1  UNL1        0.1445
     15 F         138.6417  138.9293  165.6068 F       1  UNL1       -0.2040
     16 C         139.8006  141.2153  165.1814 C.ar    1  UNL1        0.0869
     17 C         139.5920  141.0465  163.7056 C.ar    1  UNL1        0.2838
     18 O         138.9081  139.8190  163.1804 O.2     1  UNL1       -0.2650
     19 C         140.4266  141.7219  169.6087 C.3     1  UNL1        0.0190
     20 C         139.3327  140.7312  169.8767 C.3     1  UNL1        0.0044
     21 C         141.5205  142.7126  169.3407 C.3     1  UNL1        0.0044
     22 C         140.6352  141.8907  171.0846 C.3     1  UNL1        0.0044
     23 C         141.6586  136.5190  156.4612 C.3     1  UNL1        0.1336
     24 N         142.0777  137.8801  156.9321 N.ar    1  UNL1       -0.2911
     25 C         141.1287  138.7221  157.7322 C.ar    1  UNL1        0.0784
     26 C         141.5479  140.0832  158.2030 C.ar    1  UNL1        0.0186
     27 C         142.9161  140.6023  157.8738 C.ar    1  UNL1        0.0210
     28 C         143.8652  139.7603  157.0736 C.ar    1  UNL1        0.1073
     29 C         143.4460  138.3992  156.6027 C.ar    1  UNL1        0.2745
     30 O         144.3951  137.5572  155.8026 O.2     1  UNL1       -0.2656
     31 N         145.2334  140.2794  156.7443 N.am    1  UNL1       -0.2801
     32 C         145.4984  140.8974  155.4035 C.2     1  UNL1        0.2285
     33 O         144.3952  140.9964  154.3920 O.2     1  UNL1       -0.2747
     34 H         145.9575  140.2144  157.4082 H       1  UNL1        0.1550
     35 C         146.8667  141.4166  155.0742 C.3     1  UNL1        0.1120
     36 C         147.8860  141.8389  154.0580 C.3     1  UNL1        0.0476
     37 C         148.2173  141.8933  155.5199 C.3     1  UNL1        0.1701
     38 F         149.1882  142.2000  156.6213 F       1  UNL1       -0.2368
     39 C         141.9652  140.4210  161.1546 C.3     1  UNL1        0.1667
     40 O         143.2156  141.1957  161.4490 O.3     1  UNL1       -0.3771
     41 H         143.6407  141.4522  160.6157 H       1  UNL1        0.2109
@<TRIPOS>BOND
     1    23    24    1
     2    24    25   ar
     3    25    26   ar
     4    26     1    1
     5     1     2   ar
     6     2     3   ar
     7     3     4   ar
     8     4     5   ar
     9     5     7    1
    10     7     8   ar
    11     8     9   ar
    12     9    10   ar
    13    10    11   ar
    14    11    12   ar
    15    12    19    1
    16    19    20    1
    17    19    21    1
    18    19    22    1
    19    12    13   ar
    20    13    14   ar
    21    14    15    1
    22    14    16   ar
    23    16    17   ar
    24    17    18    2
    25     5     6   ar
    26     6    39    1
    27    39    40    1
    28    26    27   ar
    29    27    28   ar
    30    28    31    1
    31    31    32   am
    32    32    33    2
    33    35    32    1
    34    35    36    1
    35    36    37    1
    36    37    38    1
    37    28    29   ar
    38    29    30    2
    39    29    24   ar
    40     6     1   ar
    41    37    35    1
    42    17     7   ar
    43    16    10   ar
    44    40    41    1
    45    31    34    1
@<TRIPOS>MOLECULE
*****
 41 45 0 0 0
SMALL
GASTEIGER

@<TRIPOS>ATOM
      1 C         138.9699  142.8914  157.4040 C.ar    1  UNL1        0.0043
      2 C         139.3024  144.2234  156.7997 C.ar    1  UNL1        0.0206
      3 C         140.0868  145.2299  157.5883 C.ar    1  UNL1        0.1006
      4 N         140.5386  144.9043  158.9811 N.ar    1  UNL1       -0.2252
      5 C         140.2061  143.5723  159.5853 C.ar    1  UNL1        0.1652
      6 C         139.4217  142.5658  158.7968 C.ar    1  UNL1        0.0430
      7 N         140.6580  143.2467  160.9782 N.ar    1  UNL1       -0.1768
      8 N         141.9468  142.5110  161.1958 N.ar    1  UNL1       -0.1596
      9 C         142.3986  142.1854  162.5886 C.ar    1  UNL1        0.1208
     10 C         141.5615  142.5957  163.7637 C.ar    1  UNL1        0.0274
     11 C         142.0134  142.2701  165.1566 C.ar    1  UNL1       -0.0024
     12 C         141.1763  142.6804  166.3317 C.ar    1  UNL1       -0.0205
     13 C         139.8874  143.4162  166.1140 C.ar    1  UNL1        0.0255
     14 C         139.4356  143.7417  164.7212 C.ar    1  UNL1        0.1445
     15 F         138.1467  144.4774  164.5036 F       1  UNL1       -0.2040
     16 C         140.2727  143.3314  163.5461 C.ar    1  UNL1        0.0869
     17 C         139.8209  143.6570  162.1533 C.ar    1  UNL1        0.2838
     18 O         138.5319  144.3928  161.9356 O.2     1  UNL1       -0.2650
     19 C         141.6281  142.3549  167.7245 C.3     1  UNL1        0.0190
     20 C         142.8929  141.7637  167.1760 C.3     1  UNL1        0.0044
     21 C         140.3634  142.9461  168.2729 C.3     1  UNL1        0.0044
     22 C         142.0800  142.0293  169.1173 C.3     1  UNL1        0.0044
     23 C         138.8205  138.6503  154.4055 C.3     1  UNL1        0.1336
     24 N         138.1108  139.7644  155.1163 N.ar    1  UNL1       -0.2911
     25 C         138.8952  140.7708  155.9048 C.ar    1  UNL1        0.0784
     26 C         138.1855  141.8849  156.6155 C.ar    1  UNL1        0.0186
     27 C         136.6914  141.9926  156.5377 C.ar    1  UNL1        0.0210
     28 C         135.9070  140.9861  155.7492 C.ar    1  UNL1        0.1073
     29 C         136.6167  139.8720  155.0384 C.ar    1  UNL1        0.2745
     30 O         135.8323  138.8656  154.2499 O.2     1  UNL1       -0.2656
     31 N         134.4129  141.0938  155.6714 N.am    1  UNL1       -0.2801
     32 C         133.5526  140.2454  156.5602 C.2     1  UNL1        0.2285
     33 O         134.1863  139.2893  157.5268 O.2     1  UNL1       -0.2747
     34 H         133.9969  141.7212  155.0370 H       1  UNL1        0.1550
     35 C         132.0584  140.3530  156.4824 C.3     1  UNL1        0.1120
     36 C         130.8295  140.9511  155.8644 C.3     1  UNL1        0.0476
     37 C         130.6994  139.9413  156.9658 C.3     1  UNL1        0.1701
     38 F         129.8397  139.1205  157.8808 F       1  UNL1       -0.2368
     39 C         139.0892  141.2338  159.4011 C.3     1  UNL1        0.1667
     40 O         140.1850  140.2604  159.7201 O.3     1  UNL1       -0.3771
     41 H         140.6048  139.9650  158.8970 H       1  UNL1        0.2109
@<TRIPOS>BOND
     1    23    24    1
     2    24    25   ar
     3    25    26   ar
     4    26     1    1
     5     1     2   ar
     6     2     3   ar
     7     3     4   ar
     8     4     5   ar
     9     5     7    1
    10     7     8   ar
    11     8     9   ar
    12     9    10   ar
    13    10    11   ar
    14    11    12   ar
    15    12    19    1
    16    19    20    1
    17    19    21    1
    18    19    22    1
    19    12    13   ar
    20    13    14   ar
    21    14    15    1
    22    14    16   ar
    23    16    17   ar
    24    17    18    2
    25     5     6   ar
    26     6    39    1
    27    39    40    1
    28    26    27   ar
    29    27    28   ar
    30    28    31    1
    31    31    32   am
    32    32    33    2
    33    35    32    1
    34    35    36    1
    35    36    37    1
    36    37    38    1
    37    28    29   ar
    38    29    30    2
    39    29    24   ar
    40     6     1   ar
    41    37    35    1
    42    17     7   ar
    43    16    10   ar
    44    40    41    1
    45    31    34    1
@<TRIPOS>MOLECULE
*****
 41 45 0 0 0
SMALL
GASTEIGER

@<TRIPOS>ATOM
      1 C         142.7504  139.8619  158.7659 C.ar    1  UNL1        0.0043
      2 C         143.6981  140.9476  158.3502 C.ar    1  UNL1        0.0206
      3 C         144.3734  141.7924  159.3896 C.ar    1  UNL1        0.1006
      4 N         144.1009  141.5514  160.8448 N.ar    1  UNL1       -0.2252
      5 C         143.1532  140.4656  161.2606 C.ar    1  UNL1        0.1652
      6 C         142.4779  139.6209  160.2212 C.ar    1  UNL1        0.0430
      7 N         142.8807  140.2246  162.7159 N.ar    1  UNL1       -0.1768
      8 N         143.5484  139.0839  163.4251 N.ar    1  UNL1       -0.1596
      9 C         143.2759  138.8430  164.8803 C.ar    1  UNL1        0.1208
     10 C         142.3357  139.7427  165.6263 C.ar    1  UNL1        0.0274
     11 C         142.0632  139.5017  167.0816 C.ar    1  UNL1       -0.0024
     12 C         141.1230  140.4014  167.8276 C.ar    1  UNL1       -0.0205
     13 C         140.4553  141.5421  167.1183 C.ar    1  UNL1        0.0255
     14 C         140.7278  141.7830  165.6631 C.ar    1  UNL1        0.1445
     15 F         140.0600  142.9237  164.9539 F       1  UNL1       -0.2040
     16 C         141.6680  140.8833  164.9171 C.ar    1  UNL1        0.0869
     17 C         141.9405  141.1243  163.4619 C.ar    1  UNL1        0.2838
     18 O         141.2727  142.2650  162.7526 O.2     1  UNL1       -0.2650
     19 C         140.8505  140.1604  169.2828 C.3     1  UNL1        0.0190
     20 C         139.3762  140.2496  169.0215 C.3     1  UNL1        0.0044
     21 C         142.3249  140.0712  169.5441 C.3     1  UNL1        0.0044
     22 C         140.5780  139.9195  170.7380 C.3     1  UNL1        0.0044
     23 C         139.3481  139.3883  154.8672 C.3     1  UNL1        0.1336
     24 N         140.3740  138.7804  155.7772 N.ar    1  UNL1       -0.2911
     25 C         141.0492  139.6251  156.8166 C.ar    1  UNL1        0.0784
     26 C         142.0751  139.0171  157.7265 C.ar    1  UNL1        0.0186
     27 C         142.4257  137.5645  157.5971 C.ar    1  UNL1        0.0210
     28 C         141.7504  136.7197  156.5577 C.ar    1  UNL1        0.1073
     29 C         140.7246  137.3276  155.6477 C.ar    1  UNL1        0.2745
     30 O         140.0493  136.4829  154.6083 O.2     1  UNL1       -0.2656
     31 N         142.1010  135.2670  156.4282 N.am    1  UNL1       -0.2801
     32 C         143.4077  134.8629  155.8124 C.2     1  UNL1        0.2285
     33 O         144.3637  135.9114  155.3261 O.2     1  UNL1       -0.2747
     34 H         141.4735  134.5788  156.7474 H       1  UNL1        0.1550
     35 C         143.7583  133.4101  155.6829 C.3     1  UNL1        0.1120
     36 C         143.5356  132.0721  155.0426 C.3     1  UNL1        0.0476
     37 C         144.5883  132.2320  156.0990 C.3     1  UNL1        0.1701
     38 F         145.6753  131.6442  156.9492 F       1  UNL1       -0.2368
     39 C         141.5301  138.5351  160.6370 C.3     1  UNL1        0.1667
     40 O         142.0549  137.2916  161.2915 O.3     1  UNL1       -0.3771
     41 H         142.5994  136.7981  160.6583 H       1  UNL1        0.2109
@<TRIPOS>BOND
     1    23    24    1
     2    24    25   ar
     3    25    26   ar
     4    26     1    1
     5     1     2   ar
     6     2     3   ar
     7     3     4   ar
     8     4     5   ar
     9     5     7    1
    10     7     8   ar
    11     8     9   ar
    12     9    10   ar
    13    10    11   ar
    14    11    12   ar
    15    12    19    1
    16    19    20    1
    17    19    21    1
    18    19    22    1
    19    12    13   ar
    20    13    14   ar
    21    14    15    1
    22    14    16   ar
    23    16    17   ar
    24    17    18    2
    25     5     6   ar
    26     6    39    1
    27    39    40    1
    28    26    27   ar
    29    27    28   ar
    30    28    31    1
    31    31    32   am
    32    32    33    2
    33    35    32    1
    34    35    36    1
    35    36    37    1
    36    37    38    1
    37    28    29   ar
    38    29    30    2
    39    29    24   ar
    40     6     1   ar
    41    37    35    1
    42    17     7   ar
    43    16    10   ar
    44    40    41    1
    45    31    34    1
@<TRIPOS>MOLECULE
*****
 41 45 0 0 0
SMALL
GASTEIGER

@<TRIPOS>ATOM
      1 C         142.5170  142.7997  158.9604 C.ar    1  UNL1        0.0043
      2 C         142.0585  144.1174  158.4095 C.ar    1  UNL1        0.0206
      3 C         141.3990  145.1187  159.3110 C.ar    1  UNL1        0.1006
      4 N         141.1981  144.8022  160.7634 N.ar    1  UNL1       -0.2252
      5 C         141.6566  143.4845  161.3143 C.ar    1  UNL1        0.1652
      6 C         142.3160  142.4833  160.4128 C.ar    1  UNL1        0.0430
      7 N         141.4556  143.1680  162.7667 N.ar    1  UNL1       -0.1768
      8 N         140.0848  142.8410  163.2804 N.ar    1  UNL1       -0.1596
      9 C         139.8839  142.5245  164.7328 C.ar    1  UNL1        0.1208
     10 C         141.0538  142.5352  165.6715 C.ar    1  UNL1        0.0274
     11 C         140.8529  142.2187  167.1240 C.ar    1  UNL1       -0.0024
     12 C         142.0228  142.2293  168.0627 C.ar    1  UNL1       -0.0205
     13 C         143.3936  142.5564  167.5490 C.ar    1  UNL1        0.0255
     14 C         143.5945  142.8729  166.0966 C.ar    1  UNL1        0.1445
     15 F         144.9653  143.1999  165.5829 F       1  UNL1       -0.2040
     16 C         142.4246  142.8622  165.1579 C.ar    1  UNL1        0.0869
     17 C         142.6255  143.1787  163.7055 C.ar    1  UNL1        0.2838
     18 O         143.9964  143.5058  163.1917 O.2     1  UNL1       -0.2650
     19 C         141.8219  141.9129  169.5151 C.3     1  UNL1        0.0190
     20 C         143.3082  141.8530  169.7076 C.3     1  UNL1        0.0044
     21 C         140.3355  141.9729  169.3225 C.3     1  UNL1        0.0044
     22 C         141.6210  141.5965  170.9675 C.3     1  UNL1        0.0044
     23 C         142.3446  138.3393  156.3006 C.3     1  UNL1        0.1336
     24 N         143.0902  139.5683  156.7290 N.ar    1  UNL1       -0.2911
     25 C         142.4308  140.5695  157.6305 C.ar    1  UNL1        0.0784
     26 C         143.1764  141.7985  158.0589 C.ar    1  UNL1        0.0186
     27 C         144.5815  142.0264  157.5858 C.ar    1  UNL1        0.0210
     28 C         145.2410  141.0251  156.6843 C.ar    1  UNL1        0.1073
     29 C         144.4954  139.7961  156.2559 C.ar    1  UNL1        0.2745
     30 O         145.1548  138.7949  155.3544 O.2     1  UNL1       -0.2656
     31 N         146.6461  141.2529  156.2112 N.am    1  UNL1       -0.2801
     32 C         146.8941  141.8589  154.8617 C.2     1  UNL1        0.2285
     33 O         145.7370  142.2370  153.9853 O.2     1  UNL1       -0.2747
     34 H         147.4055  141.0047  156.7865 H       1  UNL1        0.1550
     35 C         148.2992  142.0867  154.3886 C.3     1  UNL1        0.1120
     36 C         149.2822  142.8629  153.5632 C.3     1  UNL1        0.0476
     37 C         149.7499  141.7052  154.3945 C.3     1  UNL1        0.1701
     38 F         150.8574  140.8166  154.8778 F       1  UNL1       -0.2368
     39 C         142.7745  141.1656  160.9637 C.3     1  UNL1        0.1667
     40 O         144.1974  140.9917  161.4055 O.3     1  UNL1       -0.3771
     41 H         144.7853  141.0597  160.6370 H       1  UNL1        0.2109
@<TRIPOS>BOND
     1    23    24    1
     2    24    25   ar
     3    25    26   ar
     4    26     1    1
     5     1     2   ar
     6     2     3   ar
     7     3     4   ar
     8     4     5   ar
     9     5     7    1
    10     7     8   ar
    11     8     9   ar
    12     9    10   ar
    13    10    11   ar
    14    11    12   ar
    15    12    19    1
    16    19    20    1
    17    19    21    1
    18    19    22    1
    19    12    13   ar
    20    13    14   ar
    21    14    15    1
    22    14    16   ar
    23    16    17   ar
    24    17    18    2
    25     5     6   ar
    26     6    39    1
    27    39    40    1
    28    26    27   ar
    29    27    28   ar
    30    28    31    1
    31    31    32   am
    32    32    33    2
    33    35    32    1
    34    35    36    1
    35    36    37    1
    36    37    38    1
    37    28    29   ar
    38    29    30    2
    39    29    24   ar
    40     6     1   ar
    41    37    35    1
    42    17     7   ar
    43    16    10   ar
    44    40    41    1
    45    31    34    1
