@<TRIPOS>MOLECULE
*****
 31 34 0 0 0
SMALL
GASTEIGER

@<TRIPOS>ATOM
      1 N         140.8922  144.5676  161.8321 N.3     1  UNL1       -0.2689
      2 C         140.2985  144.8601  163.1781 C.3     1  UNL1        0.0724
      3 C         140.6022  143.9646  164.3424 C.3     1  UNL1        0.0175
      4 C         141.4997  142.7766  164.1607 C.3     1  UNL1        0.0060
      5 C         142.0935  142.4841  162.8147 C.3     1  UNL1        0.0175
      6 C         141.7898  143.3796  161.6504 C.3     1  UNL1        0.0724
      7 C         140.9060  143.0690  165.5068 C.3     1  UNL1        0.0217
      8 C         141.2097  142.1735  166.6712 C.3     1  UNL1        0.0938
      9 N         142.1072  140.9854  166.4894 N.am    1  UNL1       -0.2748
     10 C         142.4110  140.0899  167.6539 C.2     1  UNL1        0.2669
     11 O         143.3085  138.9018  167.4722 O.2     1  UNL1       -0.2683
     12 C         142.7010  140.6929  165.1434 C.3     1  UNL1        0.0938
     13 C         142.3973  141.5885  163.9790 C.3     1  UNL1        0.0217
     14 C         141.8172  140.3824  168.9999 C.ar    1  UNL1        0.1380
     15 C         142.5252  141.3046  169.9476 C.ar    1  UNL1        0.0445
     16 C         141.9315  141.5971  171.2936 C.ar    1  UNL1        0.1024
     17 N         140.6296  140.9673  171.6920 N.ar    1  UNL1       -0.2224
     18 C         139.9216  140.0451  170.7443 C.ar    1  UNL1        0.1990
     19 N         140.5154  139.7526  169.3982 N.ar    1  UNL1       -0.2193
     20 C         140.5885  145.4632  160.6677 C.3     1  UNL1        0.1022
     21 C         139.6827  143.8587  158.8359 C.ar    1  UNL1        0.1358
     22 C         139.7418  143.3176  157.4382 C.ar    1  UNL1        0.0366
     23 C         140.7657  143.8399  156.4744 C.ar    1  UNL1        0.0031
     24 C         141.7304  144.9033  156.9083 C.ar    1  UNL1       -0.0001
     25 C         141.6714  145.4445  158.3061 C.ar    1  UNL1        0.0001
     26 C         140.6476  144.9221  159.2699 C.ar    1  UNL1        0.0279
     27 O         138.6589  143.3364  159.7997 O.3     1  UNL1       -0.4757
     28 C         138.7008  141.9012  160.2337 C.3     1  UNL1        0.2053
     29 C         139.1751  140.3077  162.2302 C.3     1  UNL1        0.0038
     30 C         138.5384  141.5508  161.6831 C.3     1  UNL1        0.0438
     31 C         137.7393  142.4436  162.5855 C.3     1  UNL1        0.0038
@<TRIPOS>BOND
     1    29    30    1
     2    30    31    1
     3    30    28    1
     4    28    27    1
     5    27    21    1
     6    21    22   ar
     7    22    23   ar
     8    23    24   ar
     9    24    25   ar
    10    25    26   ar
    11    26    20    1
    12    20     1    1
    13     1     2    1
    14     2     3    1
    15     3     4    1
    16     4     5    1
    17     5     6    1
    18     4     7    1
    19     7     8    1
    20     8     9    1
    21     9    10   am
    22    10    11    2
    23    10    14    1
    24    14    15   ar
    25    15    16   ar
    26    16    17   ar
    27    17    18   ar
    28    18    19   ar
    29     9    12    1
    30    12    13    1
    31    26    21   ar
    32     6     1    1
    33    19    14   ar
    34    13     4    1
@<TRIPOS>MOLECULE
*****
 31 34 0 0 0
SMALL
GASTEIGER

@<TRIPOS>ATOM
      1 N         140.2746  144.7811  161.8131 N.3     1  UNL1       -0.2689
      2 C         141.0360  145.0756  163.0714 C.3     1  UNL1        0.0724
      3 C         140.8887  144.1785  164.2645 C.3     1  UNL1        0.0175
      4 C         139.9800  142.9869  164.1992 C.3     1  UNL1        0.0060
      5 C         139.2186  142.6923  162.9409 C.3     1  UNL1        0.0175
      6 C         139.3659  143.5894  161.7478 C.3     1  UNL1        0.0724
      7 C         140.7414  143.2814  165.4576 C.3     1  UNL1        0.0217
      8 C         140.5941  142.3843  166.6507 C.3     1  UNL1        0.0938
      9 N         139.6854  141.1927  166.5854 N.am    1  UNL1       -0.2748
     10 C         139.5381  140.2955  167.7786 C.2     1  UNL1        0.2669
     11 O         138.6294  139.1039  167.7133 O.2     1  UNL1       -0.2683
     12 C         138.9240  140.8981  165.3271 C.3     1  UNL1        0.0938
     13 C         139.0713  141.7952  164.1339 C.3     1  UNL1        0.0217
     14 C         140.2995  140.5901  169.0370 C.ar    1  UNL1        0.1380
     15 C         141.5885  139.8763  169.3182 C.ar    1  UNL1        0.0445
     16 C         142.3498  140.1709  170.5765 C.ar    1  UNL1        0.1024
     17 N         141.8222  141.1793  171.5538 N.ar    1  UNL1       -0.2224
     18 C         140.5333  141.8931  171.2725 C.ar    1  UNL1        0.1990
     19 N         139.7719  141.5984  170.0141 N.ar    1  UNL1       -0.2193
     20 C         140.4219  145.6782  160.6199 C.3     1  UNL1        0.1022
     21 C         142.1177  144.2589  159.2561 C.ar    1  UNL1        0.1358
     22 C         142.5821  143.6946  157.9462 C.ar    1  UNL1        0.0366
     23 C         141.8152  143.9852  156.6902 C.ar    1  UNL1        0.0031
     24 C         140.5839  144.8400  156.7441 C.ar    1  UNL1       -0.0001
     25 C         140.1194  145.4044  158.0541 C.ar    1  UNL1        0.0001
     26 C         140.8863  145.1139  159.3100 C.ar    1  UNL1        0.0279
     27 O         142.8846  143.9684  160.5120 O.3     1  UNL1       -0.4757
     28 C         143.0213  142.5557  160.9975 C.3     1  UNL1        0.2053
     29 C         142.9490  141.0581  163.1192 C.3     1  UNL1        0.0038
     30 C         143.4408  142.2861  162.4122 C.3     1  UNL1        0.0438
     31 C         144.3521  143.2446  163.1198 C.3     1  UNL1        0.0038
@<TRIPOS>BOND
     1    29    30    1
     2    30    31    1
     3    30    28    1
     4    28    27    1
     5    27    21    1
     6    21    22   ar
     7    22    23   ar
     8    23    24   ar
     9    24    25   ar
    10    25    26   ar
    11    26    20    1
    12    20     1    1
    13     1     2    1
    14     2     3    1
    15     3     4    1
    16     4     5    1
    17     5     6    1
    18     4     7    1
    19     7     8    1
    20     8     9    1
    21     9    10   am
    22    10    11    2
    23    10    14    1
    24    14    15   ar
    25    15    16   ar
    26    16    17   ar
    27    17    18   ar
    28    18    19   ar
    29     9    12    1
    30    12    13    1
    31    26    21   ar
    32     6     1    1
    33    19    14   ar
    34    13     4    1
@<TRIPOS>MOLECULE
*****
 31 34 0 0 0
SMALL
GASTEIGER

@<TRIPOS>ATOM
      1 N         142.8737  139.1347  165.7960 N.3     1  UNL1       -0.2689
      2 C         142.1303  138.0914  165.0157 C.3     1  UNL1        0.0724
      3 C         142.2237  138.0662  163.5189 C.3     1  UNL1        0.0175
      4 C         143.0604  139.0842  162.8023 C.3     1  UNL1        0.0060
      5 C         143.8037  140.1276  163.5826 C.3     1  UNL1        0.0175
      6 C         143.7104  140.1528  165.0794 C.3     1  UNL1        0.0724
      7 C         142.3170  138.0409  162.0220 C.3     1  UNL1        0.0217
      8 C         142.4104  138.0156  160.5251 C.3     1  UNL1        0.0938
      9 N         143.2471  139.0337  159.8085 N.am    1  UNL1       -0.2748
     10 C         143.3404  139.0084  158.3116 C.2     1  UNL1        0.2669
     11 O         144.1771  140.0265  157.5950 O.2     1  UNL1       -0.2683
     12 C         143.9904  140.0770  160.5888 C.3     1  UNL1        0.0938
     13 C         143.8971  140.1023  162.0857 C.3     1  UNL1        0.0217
     14 C         142.5971  137.9651  157.5313 C.ar    1  UNL1        0.1380
     15 C         141.1963  138.2325  157.0664 C.ar    1  UNL1        0.0445
     16 C         140.4529  137.1892  156.2862 C.ar    1  UNL1        0.1024
     17 N         141.1104  135.8783  155.9707 N.ar    1  UNL1       -0.2224
     18 C         142.5113  135.6109  156.4356 C.ar    1  UNL1        0.1990
     19 N         143.2546  136.6543  157.2160 N.ar    1  UNL1       -0.2193
     20 C         142.7803  139.1600  167.2929 C.3     1  UNL1        0.1022
     21 C         140.7305  140.6279  167.9203 C.ar    1  UNL1        0.1358
     22 C         140.1547  141.8257  168.6158 C.ar    1  UNL1        0.0366
     23 C         141.0527  142.7535  169.3792 C.ar    1  UNL1        0.0031
     24 C         142.5266  142.4834  169.4472 C.ar    1  UNL1       -0.0001
     25 C         143.1025  141.2856  168.7518 C.ar    1  UNL1        0.0001
     26 C         142.2045  140.3578  167.9884 C.ar    1  UNL1        0.0279
     27 O         139.8325  139.7002  167.1569 O.3     1  UNL1       -0.4757
     28 C         138.8882  140.2481  166.1283 C.3     1  UNL1        0.2053
     29 C         140.2456  141.2475  164.1513 C.3     1  UNL1        0.0038
     30 C         139.2703  140.2368  164.6778 C.3     1  UNL1        0.0438
     31 C         138.6770  139.2150  163.7539 C.3     1  UNL1        0.0038
@<TRIPOS>BOND
     1    29    30    1
     2    30    31    1
     3    30    28    1
     4    28    27    1
     5    27    21    1
     6    21    22   ar
     7    22    23   ar
     8    23    24   ar
     9    24    25   ar
    10    25    26   ar
    11    26    20    1
    12    20     1    1
    13     1     2    1
    14     2     3    1
    15     3     4    1
    16     4     5    1
    17     5     6    1
    18     4     7    1
    19     7     8    1
    20     8     9    1
    21     9    10   am
    22    10    11    2
    23    10    14    1
    24    14    15   ar
    25    15    16   ar
    26    16    17   ar
    27    17    18   ar
    28    18    19   ar
    29     9    12    1
    30    12    13    1
    31    26    21   ar
    32     6     1    1
    33    19    14   ar
    34    13     4    1
@<TRIPOS>MOLECULE
*****
 31 34 0 0 0
SMALL
GASTEIGER

@<TRIPOS>ATOM
      1 N         140.3198  140.6625  161.0897 N.3     1  UNL1       -0.2689
      2 C         141.2196  141.3359  162.0831 C.3     1  UNL1        0.0724
      3 C         140.9602  141.1849  163.5528 C.3     1  UNL1        0.0175
      4 C         139.8011  140.3605  164.0290 C.3     1  UNL1        0.0060
      5 C         138.9013  139.6871  163.0356 C.3     1  UNL1        0.0175
      6 C         139.1607  139.8381  161.5660 C.3     1  UNL1        0.0724
      7 C         140.7009  141.0339  165.0225 C.3     1  UNL1        0.0217
      8 C         140.4416  140.8829  166.4921 C.3     1  UNL1        0.0938
      9 N         139.2825  140.0585  166.9684 N.am    1  UNL1       -0.2748
     10 C         139.0232  139.9075  168.4381 C.2     1  UNL1        0.2669
     11 O         137.8640  139.0831  168.9143 O.2     1  UNL1       -0.2683
     12 C         138.3827  139.3851  165.9750 C.3     1  UNL1        0.0938
     13 C         138.6420  139.5361  164.5052 C.3     1  UNL1        0.0217
     14 C         139.9229  140.5809  169.4315 C.ar    1  UNL1        0.1380
     15 C         139.5525  141.9230  169.9897 C.ar    1  UNL1        0.0445
     16 C         140.4523  142.5964  170.9831 C.ar    1  UNL1        0.1024
     17 N         141.7226  141.9277  171.4184 N.ar    1  UNL1       -0.2224
     18 C         142.0929  140.5856  170.8602 C.ar    1  UNL1        0.1990
     19 N         141.1931  139.9122  169.8667 N.ar    1  UNL1       -0.2193
     20 C         140.5791  140.8135  159.6200 C.3     1  UNL1        0.1022
     21 C         142.2318  138.9455  158.8925 C.ar    1  UNL1        0.1358
     22 C         142.5422  137.7385  158.0578 C.ar    1  UNL1        0.0366
     23 C         141.5104  137.1925  157.1159 C.ar    1  UNL1        0.0031
     24 C         140.1682  137.8534  157.0086 C.ar    1  UNL1       -0.0001
     25 C         139.8577  139.0605  157.8434 C.ar    1  UNL1        0.0001
     26 C         140.8895  139.6065  158.7853 C.ar    1  UNL1        0.0279
     27 O         143.2636  139.4915  159.8344 O.3     1  UNL1       -0.4757
     28 C         143.9301  138.5836  160.8250 C.3     1  UNL1        0.2053
     29 C         142.1356  137.7982  162.5317 C.3     1  UNL1        0.0038
     30 C         143.4223  138.5095  162.2345 C.3     1  UNL1        0.0438
     31 C         144.2011  139.1467  163.3468 C.3     1  UNL1        0.0038
@<TRIPOS>BOND
     1    29    30    1
     2    30    31    1
     3    30    28    1
     4    28    27    1
     5    27    21    1
     6    21    22   ar
     7    22    23   ar
     8    23    24   ar
     9    24    25   ar
    10    25    26   ar
    11    26    20    1
    12    20     1    1
    13     1     2    1
    14     2     3    1
    15     3     4    1
    16     4     5    1
    17     5     6    1
    18     4     7    1
    19     7     8    1
    20     8     9    1
    21     9    10   am
    22    10    11    2
    23    10    14    1
    24    14    15   ar
    25    15    16   ar
    26    16    17   ar
    27    17    18   ar
    28    18    19   ar
    29     9    12    1
    30    12    13    1
    31    26    21   ar
    32     6     1    1
    33    19    14   ar
    34    13     4    1
@<TRIPOS>MOLECULE
*****
 31 34 0 0 0
SMALL
GASTEIGER

@<TRIPOS>ATOM
      1 N         141.7930  139.6071  160.9534 N.3     1  UNL1       -0.2689
      2 C         141.4116  140.8201  161.7491 C.3     1  UNL1        0.0724
      3 C         141.5838  140.8243  163.2391 C.3     1  UNL1        0.0175
      4 C         142.1373  139.6154  163.9335 C.3     1  UNL1        0.0060
      5 C         142.5187  138.4024  163.1379 C.3     1  UNL1        0.0175
      6 C         142.3465  138.3982  161.6478 C.3     1  UNL1        0.0724
      7 C         141.7560  140.8285  164.7292 C.3     1  UNL1        0.0217
      8 C         141.9282  140.8326  166.2193 C.3     1  UNL1        0.0938
      9 N         142.4817  139.6237  166.9137 N.am    1  UNL1       -0.2748
     10 C         142.6539  139.6279  168.4038 C.2     1  UNL1        0.2669
     11 O         143.2074  138.4190  169.0982 O.2     1  UNL1       -0.2683
     12 C         142.8630  138.4107  166.1181 C.3     1  UNL1        0.0938
     13 C         142.6908  138.4065  164.6279 C.3     1  UNL1        0.0217
     14 C         142.2725  140.8409  169.1995 C.ar    1  UNL1        0.1380
     15 C         143.3217  141.8350  169.6007 C.ar    1  UNL1        0.0445
     16 C         142.9404  143.0480  170.3963 C.ar    1  UNL1        0.1024
     17 N         141.5098  143.2670  170.7908 N.ar    1  UNL1       -0.2224
     18 C         140.4606  142.2730  170.3896 C.ar    1  UNL1        0.1990
     19 N         140.8420  141.0599  169.5939 N.ar    1  UNL1       -0.2193
     20 C         141.6208  139.6029  159.4633 C.3     1  UNL1        0.1022
     21 C         139.0667  139.9554  159.1428 C.ar    1  UNL1        0.1358
     22 C         137.9271  140.7037  158.5174 C.ar    1  UNL1        0.0366
     23 C         138.2017  141.8478  157.5871 C.ar    1  UNL1        0.0031
     24 C         139.6160  142.2437  157.2821 C.ar    1  UNL1       -0.0001
     25 C         140.7558  141.4954  157.9075 C.ar    1  UNL1        0.0001
     26 C         140.4811  140.3512  158.8379 C.ar    1  UNL1        0.0279
     27 O         138.7921  138.8113  160.0732 O.3     1  UNL1       -0.4757
     28 C         137.7613  138.9539  161.1534 C.3     1  UNL1        0.2053
     29 C         137.9567  140.3920  163.3083 C.3     1  UNL1        0.0038
     30 C         138.1890  139.0993  162.5838 C.3     1  UNL1        0.0438
     31 C         138.8491  137.9521  163.2896 C.3     1  UNL1        0.0038
@<TRIPOS>BOND
     1    29    30    1
     2    30    31    1
     3    30    28    1
     4    28    27    1
     5    27    21    1
     6    21    22   ar
     7    22    23   ar
     8    23    24   ar
     9    24    25   ar
    10    25    26   ar
    11    26    20    1
    12    20     1    1
    13     1     2    1
    14     2     3    1
    15     3     4    1
    16     4     5    1
    17     5     6    1
    18     4     7    1
    19     7     8    1
    20     8     9    1
    21     9    10   am
    22    10    11    2
    23    10    14    1
    24    14    15   ar
    25    15    16   ar
    26    16    17   ar
    27    17    18   ar
    28    18    19   ar
    29     9    12    1
    30    12    13    1
    31    26    21   ar
    32     6     1    1
    33    19    14   ar
    34    13     4    1
@<TRIPOS>MOLECULE
*****
 31 34 0 0 0
SMALL
GASTEIGER

@<TRIPOS>ATOM
      1 N         139.6692  141.8187  163.7957 N.3     1  UNL1       -0.2689
      2 C         141.0142  141.3582  163.3172 C.3     1  UNL1        0.0724
      3 C         141.1440  140.6765  161.9874 C.3     1  UNL1        0.0175
      4 C         139.9289  140.4553  161.1361 C.3     1  UNL1        0.0060
      5 C         138.5840  140.9158  161.6146 C.3     1  UNL1        0.0175
      6 C         138.4541  141.5975  162.9444 C.3     1  UNL1        0.0724
      7 C         141.2739  139.9947  160.6576 C.3     1  UNL1        0.0217
      8 C         141.4038  139.3130  159.3278 C.3     1  UNL1        0.0938
      9 N         140.1887  139.0918  158.4765 N.am    1  UNL1       -0.2748
     10 C         140.3186  138.4101  157.1467 C.2     1  UNL1        0.2669
     11 O         139.1036  138.1889  156.2954 O.2     1  UNL1       -0.2683
     12 C         138.8438  139.5524  158.9550 C.3     1  UNL1        0.0938
     13 C         138.7139  140.2341  160.2848 C.3     1  UNL1        0.0217
     14 C         141.6636  137.9495  156.6682 C.ar    1  UNL1        0.1380
     15 C         142.0697  136.5156  156.8385 C.ar    1  UNL1        0.0445
     16 C         143.4146  136.0551  156.3600 C.ar    1  UNL1        0.1024
     17 N         144.3535  137.0285  155.7111 N.ar    1  UNL1       -0.2224
     18 C         143.9475  138.4624  155.5408 C.ar    1  UNL1        0.1990
     19 N         142.6024  138.9229  156.0193 N.ar    1  UNL1       -0.2193
     20 C         139.5393  142.5005  165.1255 C.3     1  UNL1        0.1022
     21 C         139.4715  140.4987  166.7804 C.ar    1  UNL1        0.1358
     22 C         139.9721  139.8223  168.0220 C.ar    1  UNL1        0.0366
     23 C         141.0409  140.4711  168.8506 C.ar    1  UNL1        0.0031
     24 C         141.6093  141.7963  168.4375 C.ar    1  UNL1       -0.0001
     25 C         141.1087  142.4728  167.1958 C.ar    1  UNL1        0.0001
     26 C         140.0399  141.8240  166.3672 C.ar    1  UNL1        0.0279
     27 O         138.4026  139.8500  165.9518 O.3     1  UNL1       -0.4757
     28 C         138.5067  138.3960  165.5983 C.3     1  UNL1        0.2053
     29 C         138.8859  137.6169  163.1489 C.3     1  UNL1        0.0038
     30 C         139.4330  137.9546  164.5041 C.3     1  UNL1        0.0438
     31 C         140.9064  137.8508  164.7652 C.3     1  UNL1        0.0038
@<TRIPOS>BOND
     1    29    30    1
     2    30    31    1
     3    30    28    1
     4    28    27    1
     5    27    21    1
     6    21    22   ar
     7    22    23   ar
     8    23    24   ar
     9    24    25   ar
    10    25    26   ar
    11    26    20    1
    12    20     1    1
    13     1     2    1
    14     2     3    1
    15     3     4    1
    16     4     5    1
    17     5     6    1
    18     4     7    1
    19     7     8    1
    20     8     9    1
    21     9    10   am
    22    10    11    2
    23    10    14    1
    24    14    15   ar
    25    15    16   ar
    26    16    17   ar
    27    17    18   ar
    28    18    19   ar
    29     9    12    1
    30    12    13    1
    31    26    21   ar
    32     6     1    1
    33    19    14   ar
    34    13     4    1
@<TRIPOS>MOLECULE
*****
 31 34 0 0 0
SMALL
GASTEIGER

@<TRIPOS>ATOM
      1 N         142.6870  139.1720  165.8113 N.3     1  UNL1       -0.2689
      2 C         141.3750  139.1215  165.0860 C.3     1  UNL1        0.0724
      3 C         141.3484  139.0541  163.5878 C.3     1  UNL1        0.0175
      4 C         142.6338  139.0373  162.8149 C.3     1  UNL1        0.0060
      5 C         143.9458  139.0878  163.5402 C.3     1  UNL1        0.0175
      6 C         143.9724  139.1551  165.0384 C.3     1  UNL1        0.0724
      7 C         141.3218  138.9867  162.0895 C.3     1  UNL1        0.0217
      8 C         141.2952  138.9194  160.5913 C.3     1  UNL1        0.0938
      9 N         142.5806  138.9025  159.8183 N.am    1  UNL1       -0.2748
     10 C         142.5540  138.8352  158.3200 C.2     1  UNL1        0.2669
     11 O         143.8394  138.8183  157.5471 O.2     1  UNL1       -0.2683
     12 C         143.8926  138.9530  160.5436 C.3     1  UNL1        0.0938
     13 C         143.9192  139.0204  162.0419 C.3     1  UNL1        0.0217
     14 C         141.2420  138.7847  157.5948 C.ar    1  UNL1        0.1380
     15 C         140.7728  137.4984  156.9821 C.ar    1  UNL1        0.0445
     16 C         139.4608  137.4479  156.2568 C.ar    1  UNL1        0.1024
     17 N         138.6180  138.6837  156.1441 N.ar    1  UNL1       -0.2224
     18 C         139.0872  139.9700  156.7568 C.ar    1  UNL1        0.1990
     19 N         140.3993  140.0204  157.4822 N.ar    1  UNL1       -0.2193
     20 C         142.7136  139.2393  167.3096 C.3     1  UNL1        0.1022
     21 C         141.9974  141.6957  167.7609 C.ar    1  UNL1        0.1358
     22 C         141.1305  142.6843  168.4827 C.ar    1  UNL1        0.0366
     23 C         140.1128  142.2052  169.4751 C.ar    1  UNL1        0.0031
     24 C         139.9620  140.7376  169.7456 C.ar    1  UNL1       -0.0001
     25 C         140.8290  139.7489  169.0238 C.ar    1  UNL1        0.0001
     26 C         141.8467  140.2279  168.0314 C.ar    1  UNL1        0.0279
     27 O         143.0152  142.1747  166.7686 O.3     1  UNL1       -0.4757
     28 C         142.5700  142.7701  165.4658 C.3     1  UNL1        0.2053
     29 C         144.9432  142.5804  164.4256 C.3     1  UNL1        0.0038
     30 C         143.4559  142.6807  164.2587 C.3     1  UNL1        0.0438
     31 C         142.8546  142.6917  162.8846 C.3     1  UNL1        0.0038
@<TRIPOS>BOND
     1    29    30    1
     2    30    31    1
     3    30    28    1
     4    28    27    1
     5    27    21    1
     6    21    22   ar
     7    22    23   ar
     8    23    24   ar
     9    24    25   ar
    10    25    26   ar
    11    26    20    1
    12    20     1    1
    13     1     2    1
    14     2     3    1
    15     3     4    1
    16     4     5    1
    17     5     6    1
    18     4     7    1
    19     7     8    1
    20     8     9    1
    21     9    10   am
    22    10    11    2
    23    10    14    1
    24    14    15   ar
    25    15    16   ar
    26    16    17   ar
    27    17    18   ar
    28    18    19   ar
    29     9    12    1
    30    12    13    1
    31    26    21   ar
    32     6     1    1
    33    19    14   ar
    34    13     4    1
@<TRIPOS>MOLECULE
*****
 31 34 0 0 0
SMALL
GASTEIGER

@<TRIPOS>ATOM
      1 N         141.7503  140.7698  161.1998 N.3     1  UNL1       -0.2689
      2 C         141.1262  141.6476  162.2437 C.3     1  UNL1        0.0724
      3 C         141.3040  141.3261  163.6980 C.3     1  UNL1        0.0175
      4 C         142.1059  140.1267  164.1083 C.3     1  UNL1        0.0060
      5 C         142.7301  139.2489  163.0644 C.3     1  UNL1        0.0175
      6 C         142.5523  139.5704  161.6101 C.3     1  UNL1        0.0724
      7 C         141.4817  141.0045  165.1523 C.3     1  UNL1        0.0217
      8 C         141.6595  140.6830  166.6066 C.3     1  UNL1        0.0938
      9 N         142.4614  139.4836  167.0170 N.am    1  UNL1       -0.2748
     10 C         142.6392  139.1621  168.4713 C.2     1  UNL1        0.2669
     11 O         143.4411  137.9627  168.8817 O.2     1  UNL1       -0.2683
     12 C         143.0856  138.6058  165.9730 C.3     1  UNL1        0.0938
     13 C         142.9078  138.9273  164.5187 C.3     1  UNL1        0.0217
     14 C         142.0150  140.0399  169.5152 C.ar    1  UNL1        0.1380
     15 C         142.7502  141.2471  170.0174 C.ar    1  UNL1        0.0445
     16 C         142.1261  142.1249  171.0613 C.ar    1  UNL1        0.1024
     17 N         140.7666  141.7956  171.6031 N.ar    1  UNL1       -0.2224
     18 C         140.0314  140.5884  171.1010 C.ar    1  UNL1        0.1990
     19 N         140.6557  139.7105  170.0570 N.ar    1  UNL1       -0.2193
     20 C         141.5726  141.0913  159.7454 C.3     1  UNL1        0.1022
     21 C         140.2167  139.0760  158.8234 C.ar    1  UNL1        0.1358
     22 C         140.0524  137.9686  157.8251 C.ar    1  UNL1        0.0366
     23 C         141.0797  137.7691  156.7505 C.ar    1  UNL1        0.0031
     24 C         142.2713  138.6769  156.6742 C.ar    1  UNL1       -0.0001
     25 C         142.4356  139.7844  157.6725 C.ar    1  UNL1        0.0001
     26 C         141.4083  139.9840  158.7471 C.ar    1  UNL1        0.0279
     27 O         139.1893  139.2756  159.8980 O.3     1  UNL1       -0.4757
     28 C         138.9794  138.2179  160.9406 C.3     1  UNL1        0.2053
     29 C         139.3227  137.7629  163.4754 C.3     1  UNL1        0.0038
     30 C         138.7597  138.6088  162.3720 C.3     1  UNL1        0.0438
     31 C         137.9772  139.8457  162.7001 C.3     1  UNL1        0.0038
@<TRIPOS>BOND
     1    29    30    1
     2    30    31    1
     3    30    28    1
     4    28    27    1
     5    27    21    1
     6    21    22   ar
     7    22    23   ar
     8    23    24   ar
     9    24    25   ar
    10    25    26   ar
    11    26    20    1
    12    20     1    1
    13     1     2    1
    14     2     3    1
    15     3     4    1
    16     4     5    1
    17     5     6    1
    18     4     7    1
    19     7     8    1
    20     8     9    1
    21     9    10   am
    22    10    11    2
    23    10    14    1
    24    14    15   ar
    25    15    16   ar
    26    16    17   ar
    27    17    18   ar
    28    18    19   ar
    29     9    12    1
    30    12    13    1
    31    26    21   ar
    32     6     1    1
    33    19    14   ar
    34    13     4    1
@<TRIPOS>MOLECULE
*****
 31 34 0 0 0
SMALL
GASTEIGER

@<TRIPOS>ATOM
      1 N         139.1808  140.2365  166.3731 N.3     1  UNL1       -0.2689
      2 C         138.7125  139.3238  165.2788 C.3     1  UNL1        0.0724
      3 C         138.6818  139.8085  163.8596 C.3     1  UNL1        0.0175
      4 C         139.1194  141.2060  163.5348 C.3     1  UNL1        0.0060
      5 C         139.5877  142.1188  164.6291 C.3     1  UNL1        0.0175
      6 C         139.6184  141.6340  166.0482 C.3     1  UNL1        0.0724
      7 C         138.6511  140.2932  162.4404 C.3     1  UNL1        0.0217
      8 C         138.6205  140.7779  161.0212 C.3     1  UNL1        0.0938
      9 N         139.0580  142.1754  160.6964 N.am    1  UNL1       -0.2748
     10 C         139.0273  142.6602  159.2771 C.2     1  UNL1        0.2669
     11 O         139.4649  144.0577  158.9523 O.2     1  UNL1       -0.2683
     12 C         139.5263  143.0882  161.7907 C.3     1  UNL1        0.0938
     13 C         139.5570  142.6035  163.2099 C.3     1  UNL1        0.0217
     14 C         138.5591  141.7474  158.1828 C.ar    1  UNL1        0.1380
     15 C         139.4588  140.6585  157.6780 C.ar    1  UNL1        0.0445
     16 C         138.9906  139.7458  156.5837 C.ar    1  UNL1        0.1024
     17 N         137.6225  139.9218  155.9942 N.ar    1  UNL1       -0.2224
     18 C         136.7228  141.0107  156.4990 C.ar    1  UNL1        0.1990
     19 N         137.1911  141.9235  157.5934 N.ar    1  UNL1       -0.2193
     20 C         139.2115  139.7518  167.7923 C.3     1  UNL1        0.1022
     21 C         141.6208  140.1273  168.6892 C.ar    1  UNL1        0.1358
     22 C         142.5551  140.7597  169.6776 C.ar    1  UNL1        0.0366
     23 C         142.0144  141.6491  170.7578 C.ar    1  UNL1        0.0031
     24 C         140.5394  141.9060  170.8495 C.ar    1  UNL1       -0.0001
     25 C         139.6051  141.2736  169.8610 C.ar    1  UNL1        0.0001
     26 C         140.1458  140.3842  168.7808 C.ar    1  UNL1        0.0279
     27 O         142.1615  139.2380  167.6090 O.3     1  UNL1       -0.4757
     28 C         142.8593  139.8367  166.4239 C.3     1  UNL1        0.2053
     29 C         141.9932  137.9833  164.8224 C.3     1  UNL1        0.0038
     30 C         142.5189  139.3713  165.0391 C.3     1  UNL1        0.0438
     31 C         142.7042  140.2939  163.8711 C.3     1  UNL1        0.0038
@<TRIPOS>BOND
     1    29    30    1
     2    30    31    1
     3    30    28    1
     4    28    27    1
     5    27    21    1
     6    21    22   ar
     7    22    23   ar
     8    23    24   ar
     9    24    25   ar
    10    25    26   ar
    11    26    20    1
    12    20     1    1
    13     1     2    1
    14     2     3    1
    15     3     4    1
    16     4     5    1
    17     5     6    1
    18     4     7    1
    19     7     8    1
    20     8     9    1
    21     9    10   am
    22    10    11    2
    23    10    14    1
    24    14    15   ar
    25    15    16   ar
    26    16    17   ar
    27    17    18   ar
    28    18    19   ar
    29     9    12    1
    30    12    13    1
    31    26    21   ar
    32     6     1    1
    33    19    14   ar
    34    13     4    1
