@<TRIPOS>MOLECULE
*****
 36 39 0 0 0
SMALL
GASTEIGER

@<TRIPOS>ATOM
      1 N         140.9217  139.2265  159.7186 N.am    1  UNL1       -0.2448
      2 C         141.2212  140.6903  159.5864 C.2     1  UNL1        0.3079
      3 O         141.7611  141.2318  158.2959 O.2     1  UNL1       -0.2522
      4 N         140.9809  141.6126  160.7446 N.am    1  UNL1       -0.2844
      5 H         140.6266  141.2573  161.5916 H       1  UNL1        0.1513
      6 C         140.3819  138.6850  161.0091 C.ar    1  UNL1        0.0553
      7 C         141.3180  138.1157  162.0336 C.ar    1  UNL1        0.0158
      8 C         140.7781  137.5742  163.3241 C.ar    1  UNL1        0.0127
      9 C         139.3021  137.6020  163.5900 C.ar    1  UNL1        0.0578
     10 CL        138.7622  137.0605  164.8805 Cl      1  UNL1       -0.0822
     11 C         138.3660  138.1713  162.5655 C.ar    1  UNL1        0.0127
     12 C         138.9059  138.7127  161.2751 C.ar    1  UNL1        0.0158
     13 N         141.6428  136.4594  156.2439 N.3     1  UNL1       -0.2688
     14 C         142.7496  136.7493  157.2141 C.3     1  UNL1        0.0741
     15 C         142.5092  137.6716  158.3723 C.3     1  UNL1        0.0376
     16 C         141.1621  138.3041  158.5604 C.3     1  UNL1        0.0840
     17 C         140.0554  138.0143  157.5903 C.3     1  UNL1        0.0376
     18 C         140.2958  137.0919  156.4320 C.3     1  UNL1        0.0741
     19 C         141.8832  135.5371  155.0857 C.3     1  UNL1        0.0993
     20 N         145.4305  132.0400  156.5644 N.pl3   1  UNL1       -0.3426
     21 C         144.0511  132.3623  156.0713 C.ar    1  UNL1        0.1251
     22 C         143.6568  133.7885  155.8251 C.ar    1  UNL1        0.0310
     23 C         142.2774  134.1108  155.3320 C.ar    1  UNL1       -0.0018
     24 C         141.2921  133.0071  155.0852 C.ar    1  UNL1        0.0179
     25 C         141.6864  131.5810  155.3314 C.ar    1  UNL1        0.1000
     26 N         143.0658  131.2586  155.8245 N.ar    1  UNL1       -0.2296
     27 H         146.0772  132.7644  156.7264 H       1  UNL1        0.1437
     28 H         145.6893  131.1039  156.7260 H       1  UNL1        0.1437
     29 C         141.2804  143.0765  160.6123 C.3     1  UNL1        0.1177
     30 C         142.0324  143.7892  161.6970 C.ar    1  UNL1       -0.0024
     31 C         143.5169  143.6125  161.8211 C.ar    1  UNL1       -0.0003
     32 C         144.2689  144.3252  162.9058 C.ar    1  UNL1        0.0294
     33 C         143.5365  145.2145  163.8664 C.ar    1  UNL1        0.1401
     34 F         144.2885  145.9272  164.9511 F       1  UNL1       -0.2042
     35 C         142.0522  145.3911  163.7423 C.ar    1  UNL1        0.0294
     36 C         141.3001  144.6785  162.6576 C.ar    1  UNL1       -0.0003
@<TRIPOS>BOND
     1    20    21    1
     2    21    22   ar
     3    22    23   ar
     4    23    19    1
     5    19    13    1
     6    13    14    1
     7    14    15    1
     8    15    16    1
     9    16     1    1
    10     1     2   am
    11     2     3    2
    12     2     4   am
    13     4    29    1
    14    29    30    1
    15    30    31   ar
    16    31    32   ar
    17    32    33   ar
    18    33    34    1
    19    33    35   ar
    20    35    36   ar
    21     1     6    1
    22     6     7   ar
    23     7     8   ar
    24     8     9   ar
    25     9    10    1
    26     9    11   ar
    27    11    12   ar
    28    16    17    1
    29    17    18    1
    30    23    24   ar
    31    24    25   ar
    32    25    26   ar
    33    26    21   ar
    34    18    13    1
    35    36    30   ar
    36    12     6   ar
    37    20    27    1
    38    20    28    1
    39     4     5    1
@<TRIPOS>MOLECULE
*****
 36 39 0 0 0
SMALL
GASTEIGER

@<TRIPOS>ATOM
      1 N         141.8147  140.4733  161.6612 N.am    1  UNL1       -0.2448
      2 C         142.2766  139.7587  162.8965 C.2     1  UNL1        0.3079
      3 O         142.7489  138.3376  162.8087 O.2     1  UNL1       -0.2522
      4 N         142.2663  140.4652  164.2197 N.am    1  UNL1       -0.2844
      5 H         141.9564  141.3978  164.2774 H       1  UNL1        0.1513
      6 C         141.3425  141.8943  161.7490 C.ar    1  UNL1        0.0553
      7 C         139.8916  142.1890  161.9899 C.ar    1  UNL1        0.0158
      8 C         139.4194  143.6100  162.0777 C.ar    1  UNL1        0.0127
      9 C         140.3982  144.7363  161.9247 C.ar    1  UNL1        0.0578
     10 CL        139.9259  146.1574  162.0126 Cl      1  UNL1       -0.0822
     11 C         141.8490  144.4417  161.6839 C.ar    1  UNL1        0.0127
     12 C         142.3212  143.0207  161.5961 C.ar    1  UNL1        0.0158
     13 N         141.8456  138.3539  157.6916 N.3     1  UNL1       -0.2688
     14 C         143.0676  139.0871  158.1599 C.3     1  UNL1        0.0741
     15 C         143.0573  139.7935  159.4831 C.3     1  UNL1        0.0376
     16 C         141.8250  139.7668  160.3380 C.3     1  UNL1        0.0840
     17 C         140.6031  139.0337  159.8697 C.3     1  UNL1        0.0376
     18 C         140.6134  138.3272  158.5465 C.3     1  UNL1        0.0741
     19 C         141.8559  137.6475  156.3684 C.3     1  UNL1        0.0993
     20 N         144.1865  133.3391  158.1023 N.pl3   1  UNL1       -0.3426
     21 C         143.2088  134.0061  157.1807 C.ar    1  UNL1        0.1251
     22 C         143.0212  135.4932  157.2353 C.ar    1  UNL1        0.0310
     23 C         142.0435  136.1602  156.3137 C.ar    1  UNL1       -0.0018
     24 C         141.2536  135.3400  155.3374 C.ar    1  UNL1        0.0179
     25 C         141.4412  133.8528  155.2828 C.ar    1  UNL1        0.1000
     26 N         142.4189  133.1859  156.2044 N.ar    1  UNL1       -0.2296
     27 H         144.7050  133.8774  158.7431 H       1  UNL1        0.1437
     28 H         144.3096  132.3630  158.0664 H       1  UNL1        0.1437
     29 C         142.7283  139.7505  165.4550 C.3     1  UNL1        0.1177
     30 C         141.9141  139.8240  166.7127 C.ar    1  UNL1       -0.0024
     31 C         140.4303  140.0304  166.6346 C.ar    1  UNL1       -0.0003
     32 C         139.6162  140.1039  167.8923 C.ar    1  UNL1        0.0294
     33 C         140.2857  139.9710  169.2280 C.ar    1  UNL1        0.1401
     34 F         139.4715  140.0445  170.4857 F       1  UNL1       -0.2042
     35 C         141.7694  139.7647  169.3060 C.ar    1  UNL1        0.0294
     36 C         142.5836  139.6912  168.0484 C.ar    1  UNL1       -0.0003
@<TRIPOS>BOND
     1    20    21    1
     2    21    22   ar
     3    22    23   ar
     4    23    19    1
     5    19    13    1
     6    13    14    1
     7    14    15    1
     8    15    16    1
     9    16     1    1
    10     1     2   am
    11     2     3    2
    12     2     4   am
    13     4    29    1
    14    29    30    1
    15    30    31   ar
    16    31    32   ar
    17    32    33   ar
    18    33    34    1
    19    33    35   ar
    20    35    36   ar
    21     1     6    1
    22     6     7   ar
    23     7     8   ar
    24     8     9   ar
    25     9    10    1
    26     9    11   ar
    27    11    12   ar
    28    16    17    1
    29    17    18    1
    30    23    24   ar
    31    24    25   ar
    32    25    26   ar
    33    26    21   ar
    34    18    13    1
    35    36    30   ar
    36    12     6   ar
    37    20    27    1
    38    20    28    1
    39     4     5    1
@<TRIPOS>MOLECULE
*****
 36 39 0 0 0
SMALL
GASTEIGER

@<TRIPOS>ATOM
      1 N         143.9635  142.2344  160.2148 N.am    1  UNL1       -0.2448
      2 C         142.9665  143.3505  160.3149 C.2     1  UNL1        0.3079
      3 O         142.6337  144.1699  159.1032 O.2     1  UNL1       -0.2522
      4 N         142.3022  143.6474  161.6266 N.am    1  UNL1       -0.2844
      5 H         142.5206  143.1097  162.4218 H       1  UNL1        0.1513
      6 C         144.2963  141.4150  161.4264 C.ar    1  UNL1        0.0553
      7 C         145.2284  141.9602  162.4676 C.ar    1  UNL1        0.0158
      8 C         145.5611  141.1409  163.6791 C.ar    1  UNL1        0.0127
      9 C         144.9618  139.7764  163.8495 C.ar    1  UNL1        0.0578
     10 CL        145.2946  138.9570  165.0612 Cl      1  UNL1       -0.0822
     11 C         144.0298  139.2312  162.8084 C.ar    1  UNL1        0.0127
     12 C         143.6970  140.0506  161.5968 C.ar    1  UNL1        0.0158
     13 N         145.9563  141.3437  156.2796 N.3     1  UNL1       -0.2688
     14 C         144.7479  140.5619  156.7022 C.3     1  UNL1        0.0741
     15 C         144.0836  140.8588  158.0139 C.3     1  UNL1        0.0376
     16 C         144.6278  141.9375  158.9030 C.3     1  UNL1        0.0840
     17 C         145.8362  142.7192  158.4804 C.3     1  UNL1        0.0376
     18 C         146.5005  142.4223  157.1687 C.3     1  UNL1        0.0741
     19 C         146.6206  141.0468  154.9679 C.3     1  UNL1        0.0993
     20 N         147.0516  145.7320  152.7627 N.pl3   1  UNL1       -0.3426
     21 C         147.6740  144.4374  153.1948 C.ar    1  UNL1        0.1251
     22 C         146.8362  143.3894  153.8653 C.ar    1  UNL1        0.0310
     23 C         147.4585  142.0948  154.2974 C.ar    1  UNL1       -0.0018
     24 C         148.9188  141.8482  154.0589 C.ar    1  UNL1        0.0179
     25 C         149.7566  142.8963  153.3884 C.ar    1  UNL1        0.1000
     26 N         149.1342  144.1909  152.9563 N.ar    1  UNL1       -0.2296
     27 H         146.0932  145.8938  152.9192 H       1  UNL1        0.1437
     28 H         147.6015  146.4199  152.3226 H       1  UNL1        0.1437
     29 C         141.3052  144.7637  161.7266 C.3     1  UNL1        0.1177
     30 C         140.1756  144.6745  162.7096 C.ar    1  UNL1       -0.0024
     31 C         140.4416  144.8483  164.1756 C.ar    1  UNL1       -0.0003
     32 C         139.3121  144.7591  165.1585 C.ar    1  UNL1        0.0294
     33 C         137.9165  144.4960  164.6754 C.ar    1  UNL1        0.1401
     34 F         136.7870  144.4068  165.6584 F       1  UNL1       -0.2042
     35 C         137.6506  144.3222  163.2095 C.ar    1  UNL1        0.0294
     36 C         138.7801  144.4114  162.2266 C.ar    1  UNL1       -0.0003
@<TRIPOS>BOND
     1    20    21    1
     2    21    22   ar
     3    22    23   ar
     4    23    19    1
     5    19    13    1
     6    13    14    1
     7    14    15    1
     8    15    16    1
     9    16     1    1
    10     1     2   am
    11     2     3    2
    12     2     4   am
    13     4    29    1
    14    29    30    1
    15    30    31   ar
    16    31    32   ar
    17    32    33   ar
    18    33    34    1
    19    33    35   ar
    20    35    36   ar
    21     1     6    1
    22     6     7   ar
    23     7     8   ar
    24     8     9   ar
    25     9    10    1
    26     9    11   ar
    27    11    12   ar
    28    16    17    1
    29    17    18    1
    30    23    24   ar
    31    24    25   ar
    32    25    26   ar
    33    26    21   ar
    34    18    13    1
    35    36    30   ar
    36    12     6   ar
    37    20    27    1
    38    20    28    1
    39     4     5    1
@<TRIPOS>MOLECULE
*****
 36 39 0 0 0
SMALL
GASTEIGER

@<TRIPOS>ATOM
      1 N         140.4159  140.8777  162.7847 N.am    1  UNL1       -0.2448
      2 C         140.0753  139.7721  161.8300 C.2     1  UNL1        0.3079
      3 O         140.2957  138.3428  162.2282 O.2     1  UNL1       -0.2522
      4 N         139.5142  140.0957  160.4770 N.am    1  UNL1       -0.2844
      5 H         139.3696  141.0338  160.2156 H       1  UNL1        0.1513
      6 C         140.1955  142.3071  162.3865 C.ar    1  UNL1        0.0553
      7 C         141.1709  142.9906  161.4748 C.ar    1  UNL1        0.0158
      8 C         140.9505  144.4198  161.0766 C.ar    1  UNL1        0.0127
      9 C         139.7546  145.1656  161.5901 C.ar    1  UNL1        0.0578
     10 CL        139.5341  146.5949  161.1919 Cl      1  UNL1       -0.0822
     11 C         138.7791  144.4820  162.5018 C.ar    1  UNL1        0.0127
     12 C         138.9995  143.0528  162.8999 C.ar    1  UNL1        0.0158
     13 N         142.0990  139.9069  166.8436 N.3     1  UNL1       -0.2688
     14 C         140.6204  139.8230  166.6052 C.3     1  UNL1        0.0741
     15 C         140.0594  140.1466  165.2522 C.3     1  UNL1        0.0376
     16 C         140.9769  140.5541  164.1377 C.3     1  UNL1        0.0840
     17 C         142.4554  140.6380  164.3761 C.3     1  UNL1        0.0376
     18 C         143.0165  140.3144  165.7291 C.3     1  UNL1        0.0741
     19 C         142.6600  139.5833  168.1966 C.3     1  UNL1        0.0993
     20 N         143.3995  143.8193  171.1136 N.pl3   1  UNL1       -0.3426
     21 C         142.6608  142.5427  170.8408 C.ar    1  UNL1        0.1251
     22 C         143.0297  141.7013  169.6551 C.ar    1  UNL1        0.0310
     23 C         142.2910  140.4247  169.3823 C.ar    1  UNL1       -0.0018
     24 C         141.1833  139.9894  170.2952 C.ar    1  UNL1        0.0179
     25 C         140.8143  140.8307  171.4809 C.ar    1  UNL1        0.1000
     26 N         141.5530  142.1074  171.7537 N.ar    1  UNL1       -0.2296
     27 H         144.1265  144.1050  170.5144 H       1  UNL1        0.1437
     28 H         143.1573  144.3716  171.8919 H       1  UNL1        0.1437
     29 C         139.1736  138.9900  159.5223 C.3     1  UNL1        0.1177
     30 C         140.2264  138.4384  158.6072 C.ar    1  UNL1       -0.0024
     31 C         141.6721  138.5028  159.0021 C.ar    1  UNL1       -0.0003
     32 C         142.7249  137.9513  158.0870 C.ar    1  UNL1        0.0294
     33 C         142.3319  137.3352  156.7769 C.ar    1  UNL1        0.1401
     34 F         143.3847  136.7837  155.8618 F       1  UNL1       -0.2042
     35 C         140.8863  137.2708  156.3820 C.ar    1  UNL1        0.0294
     36 C         139.8336  137.8224  157.2972 C.ar    1  UNL1       -0.0003
@<TRIPOS>BOND
     1    20    21    1
     2    21    22   ar
     3    22    23   ar
     4    23    19    1
     5    19    13    1
     6    13    14    1
     7    14    15    1
     8    15    16    1
     9    16     1    1
    10     1     2   am
    11     2     3    2
    12     2     4   am
    13     4    29    1
    14    29    30    1
    15    30    31   ar
    16    31    32   ar
    17    32    33   ar
    18    33    34    1
    19    33    35   ar
    20    35    36   ar
    21     1     6    1
    22     6     7   ar
    23     7     8   ar
    24     8     9   ar
    25     9    10    1
    26     9    11   ar
    27    11    12   ar
    28    16    17    1
    29    17    18    1
    30    23    24   ar
    31    24    25   ar
    32    25    26   ar
    33    26    21   ar
    34    18    13    1
    35    36    30   ar
    36    12     6   ar
    37    20    27    1
    38    20    28    1
    39     4     5    1
@<TRIPOS>MOLECULE
*****
 36 39 0 0 0
SMALL
GASTEIGER

@<TRIPOS>ATOM
      1 N         141.2902  139.6652  160.3984 N.am    1  UNL1       -0.2448
      2 C         141.4322  138.9630  161.7163 C.2     1  UNL1        0.3079
      3 O         141.6585  137.4807  161.7558 O.2     1  UNL1       -0.2522
      4 N         141.3477  139.7431  162.9947 N.am    1  UNL1       -0.2844
      5 H         141.1992  140.7160  162.9688 H       1  UNL1        0.1513
      6 C         141.0638  141.1475  160.3589 C.ar    1  UNL1        0.0553
      7 C         142.2344  142.0839  160.3056 C.ar    1  UNL1        0.0158
      8 C         142.0080  143.5661  160.2661 C.ar    1  UNL1        0.0127
      9 C         140.6110  144.1121  160.2800 C.ar    1  UNL1        0.0578
     10 CL        140.3846  145.5944  160.2405 Cl      1  UNL1       -0.0822
     11 C         139.4403  143.1757  160.3333 C.ar    1  UNL1        0.0127
     12 C         139.6668  141.6935  160.3728 C.ar    1  UNL1        0.0158
     13 N         141.5434  137.3249  156.5632 N.3     1  UNL1       -0.2688
     14 C         140.2056  137.6251  157.1717 C.3     1  UNL1        0.0741
     15 C         140.1212  138.4052  158.4501 C.3     1  UNL1        0.0376
     16 C         141.3746  138.8851  159.1200 C.3     1  UNL1        0.0840
     17 C         142.7123  138.5849  158.5115 C.3     1  UNL1        0.0376
     18 C         142.7967  137.8048  157.2331 C.3     1  UNL1        0.0741
     19 C         141.6278  136.5448  155.2848 C.3     1  UNL1        0.0993
     20 N         143.4179  132.2913  157.6730 N.pl3   1  UNL1       -0.3426
     21 C         142.7026  132.9294  156.5192 C.ar    1  UNL1        0.1251
     22 C         142.5229  134.4180  156.4789 C.ar    1  UNL1        0.0310
     23 C         141.8076  135.0561  155.3251 C.ar    1  UNL1       -0.0018
     24 C         141.2720  134.2056  154.2117 C.ar    1  UNL1        0.0179
     25 C         141.4518  132.7170  154.2520 C.ar    1  UNL1        0.1000
     26 N         142.1671  132.0789  155.4058 N.ar    1  UNL1       -0.2296
     27 H         143.7694  132.8495  158.4037 H       1  UNL1        0.1437
     28 H         143.5359  131.3142  157.6994 H       1  UNL1        0.1437
     29 C         141.4897  139.0409  164.3126 C.3     1  UNL1        0.1177
     30 C         140.2743  138.7495  165.1419 C.ar    1  UNL1       -0.0024
     31 C         139.8585  139.7019  166.2237 C.ar    1  UNL1       -0.0003
     32 C         138.6430  139.4105  167.0530 C.ar    1  UNL1        0.0294
     33 C         137.8433  138.1668  166.8005 C.ar    1  UNL1        0.1401
     34 F         136.6279  137.8754  167.6298 F       1  UNL1       -0.2042
     35 C         138.2591  137.2145  165.7188 C.ar    1  UNL1        0.0294
     36 C         139.4746  137.5058  164.8895 C.ar    1  UNL1       -0.0003
@<TRIPOS>BOND
     1    20    21    1
     2    21    22   ar
     3    22    23   ar
     4    23    19    1
     5    19    13    1
     6    13    14    1
     7    14    15    1
     8    15    16    1
     9    16     1    1
    10     1     2   am
    11     2     3    2
    12     2     4   am
    13     4    29    1
    14    29    30    1
    15    30    31   ar
    16    31    32   ar
    17    32    33   ar
    18    33    34    1
    19    33    35   ar
    20    35    36   ar
    21     1     6    1
    22     6     7   ar
    23     7     8   ar
    24     8     9   ar
    25     9    10    1
    26     9    11   ar
    27    11    12   ar
    28    16    17    1
    29    17    18    1
    30    23    24   ar
    31    24    25   ar
    32    25    26   ar
    33    26    21   ar
    34    18    13    1
    35    36    30   ar
    36    12     6   ar
    37    20    27    1
    38    20    28    1
    39     4     5    1
@<TRIPOS>MOLECULE
*****
 36 39 0 0 0
SMALL
GASTEIGER

@<TRIPOS>ATOM
      1 N         140.4286  140.1158  161.4992 N.am    1  UNL1       -0.2448
      2 C         140.1437  139.3020  162.7265 C.2     1  UNL1        0.3079
      3 O         140.2351  137.8057  162.6723 O.2     1  UNL1       -0.2522
      4 N         139.7673  139.9844  164.0082 N.am    1  UNL1       -0.2844
      5 H         139.7073  140.9665  164.0438 H       1  UNL1        0.1513
      6 C         140.3372  141.6121  161.5534 C.ar    1  UNL1        0.0553
      7 C         141.5881  142.4394  161.5799 C.ar    1  UNL1        0.0158
      8 C         141.4966  143.9356  161.6341 C.ar    1  UNL1        0.0127
      9 C         140.1543  144.6045  161.6618 C.ar    1  UNL1        0.0578
     10 CL        140.0629  146.1007  161.7161 Cl      1  UNL1       -0.0822
     11 C         138.9034  143.7771  161.6354 C.ar    1  UNL1        0.0127
     12 C         138.9949  142.2809  161.5811 C.ar    1  UNL1        0.0158
     13 N         141.5577  138.0685  157.6542 N.3     1  UNL1       -0.2688
     14 C         140.1120  138.2465  158.0126 C.3     1  UNL1        0.0741
     15 C         139.7357  138.9290  159.2943 C.3     1  UNL1        0.0376
     16 C         140.8050  139.4334  160.2175 C.3     1  UNL1        0.0840
     17 C         142.2506  139.2554  159.8590 C.3     1  UNL1        0.0376
     18 C         142.6269  138.5729  158.5773 C.3     1  UNL1        0.0741
     19 C         141.9341  137.3861  156.3725 C.3     1  UNL1        0.0993
     20 N         144.1821  133.0319  158.1010 N.pl3   1  UNL1       -0.3426
     21 C         143.2012  133.7164  157.1958 C.ar    1  UNL1        0.1251
     22 C         143.0581  135.2090  157.2367 C.ar    1  UNL1        0.0310
     23 C         142.0772  135.8935  156.3315 C.ar    1  UNL1       -0.0018
     24 C         141.2395  135.0854  155.3854 C.ar    1  UNL1        0.0179
     25 C         141.3827  133.5929  155.3444 C.ar    1  UNL1        0.1000
     26 N         142.3635  132.9084  156.2496 N.ar    1  UNL1       -0.2296
     27 H         144.7319  133.5623  158.7220 H       1  UNL1        0.1437
     28 H         144.2760  132.0523  158.0741 H       1  UNL1        0.1437
     29 C         139.4823  139.1706  165.2356 C.3     1  UNL1        0.1177
     30 C         140.1992  139.4718  166.5183 C.ar    1  UNL1       -0.0024
     31 C         141.6962  139.3961  166.5765 C.ar    1  UNL1       -0.0003
     32 C         142.4131  139.6973  167.8592 C.ar    1  UNL1        0.0294
     33 C         141.6330  140.0742  169.0838 C.ar    1  UNL1        0.1401
     34 F         142.3498  140.3755  170.3665 F       1  UNL1       -0.2042
     35 C         140.1360  140.1499  169.0255 C.ar    1  UNL1        0.0294
     36 C         139.4192  139.8487  167.7428 C.ar    1  UNL1       -0.0003
@<TRIPOS>BOND
     1    20    21    1
     2    21    22   ar
     3    22    23   ar
     4    23    19    1
     5    19    13    1
     6    13    14    1
     7    14    15    1
     8    15    16    1
     9    16     1    1
    10     1     2   am
    11     2     3    2
    12     2     4   am
    13     4    29    1
    14    29    30    1
    15    30    31   ar
    16    31    32   ar
    17    32    33   ar
    18    33    34    1
    19    33    35   ar
    20    35    36   ar
    21     1     6    1
    22     6     7   ar
    23     7     8   ar
    24     8     9   ar
    25     9    10    1
    26     9    11   ar
    27    11    12   ar
    28    16    17    1
    29    17    18    1
    30    23    24   ar
    31    24    25   ar
    32    25    26   ar
    33    26    21   ar
    34    18    13    1
    35    36    30   ar
    36    12     6   ar
    37    20    27    1
    38    20    28    1
    39     4     5    1
@<TRIPOS>MOLECULE
*****
 36 39 0 0 0
SMALL
GASTEIGER

@<TRIPOS>ATOM
      1 N         142.1525  142.6533  162.1530 N.am    1  UNL1       -0.2448
      2 C         141.7587  143.9629  161.5368 C.2     1  UNL1        0.3079
      3 O         141.6186  145.1843  162.3962 O.2     1  UNL1       -0.2522
      4 N         141.5050  144.0512  160.0610 N.am    1  UNL1       -0.2844
      5 H         141.5970  143.2496  159.4969 H       1  UNL1        0.1513
      6 C         142.2926  141.4319  161.2936 C.ar    1  UNL1        0.0553
      7 C         143.6299  141.0678  160.7200 C.ar    1  UNL1        0.0158
      8 C         143.7700  139.8465  159.8606 C.ar    1  UNL1        0.0127
      9 C         142.5727  138.9892  159.5747 C.ar    1  UNL1        0.0578
     10 CL        142.7128  137.7678  158.7152 Cl      1  UNL1       -0.0822
     11 C         141.2354  139.3533  160.1482 C.ar    1  UNL1        0.0127
     12 C         141.0953  140.5746  161.0077 C.ar    1  UNL1        0.0158
     13 N         142.9135  142.3884  166.5803 N.3     1  UNL1       -0.2688
     14 C         141.5707  142.0138  166.0264 C.3     1  UNL1        0.0741
     15 C         141.3170  142.1021  164.5506 C.3     1  UNL1        0.0376
     16 C         142.4061  142.5650  163.6288 C.3     1  UNL1        0.0840
     17 C         143.7488  142.9396  164.1827 C.3     1  UNL1        0.0376
     18 C         144.0025  142.8513  165.6585 C.3     1  UNL1        0.0741
     19 C         143.1671  142.3001  168.0561 C.3     1  UNL1        0.0993
     20 N         139.1816  143.3731  171.2127 N.pl3   1  UNL1       -0.3426
     21 C         140.0857  142.3724  170.5560 C.ar    1  UNL1        0.1251
     22 C         141.1743  142.8366  169.6344 C.ar    1  UNL1        0.0310
     23 C         142.0785  141.8359  168.9778 C.ar    1  UNL1       -0.0018
     24 C         141.8940  140.3711  169.2427 C.ar    1  UNL1        0.0179
     25 C         140.8054  139.9070  170.1644 C.ar    1  UNL1        0.1000
     26 N         139.9013  140.9076  170.8210 N.ar    1  UNL1       -0.2296
     27 H         139.3027  144.3345  171.0387 H       1  UNL1        0.1437
     28 H         138.4671  143.0685  171.8176 H       1  UNL1        0.1437
     29 C         141.1112  145.3609  159.4447 C.3     1  UNL1        0.1177
     30 C         141.1361  145.5259  157.9540 C.ar    1  UNL1       -0.0024
     31 C         142.2502  144.9223  157.1511 C.ar    1  UNL1       -0.0003
     32 C         142.2750  145.0873  155.6605 C.ar    1  UNL1        0.0294
     33 C         141.1859  145.8559  154.9727 C.ar    1  UNL1        0.1401
     34 F         141.2108  146.0210  153.4820 F       1  UNL1       -0.2042
     35 C         140.0719  146.4595  155.7756 C.ar    1  UNL1        0.0294
     36 C         140.0470  146.2945  157.2663 C.ar    1  UNL1       -0.0003
@<TRIPOS>BOND
     1    20    21    1
     2    21    22   ar
     3    22    23   ar
     4    23    19    1
     5    19    13    1
     6    13    14    1
     7    14    15    1
     8    15    16    1
     9    16     1    1
    10     1     2   am
    11     2     3    2
    12     2     4   am
    13     4    29    1
    14    29    30    1
    15    30    31   ar
    16    31    32   ar
    17    32    33   ar
    18    33    34    1
    19    33    35   ar
    20    35    36   ar
    21     1     6    1
    22     6     7   ar
    23     7     8   ar
    24     8     9   ar
    25     9    10    1
    26     9    11   ar
    27    11    12   ar
    28    16    17    1
    29    17    18    1
    30    23    24   ar
    31    24    25   ar
    32    25    26   ar
    33    26    21   ar
    34    18    13    1
    35    36    30   ar
    36    12     6   ar
    37    20    27    1
    38    20    28    1
    39     4     5    1
@<TRIPOS>MOLECULE
*****
 36 39 0 0 0
SMALL
GASTEIGER

@<TRIPOS>ATOM
      1 N         140.2094  139.7148  159.8998 N.am    1  UNL1       -0.2448
      2 C         139.5050  139.1643  161.1042 C.2     1  UNL1        0.3079
      3 O         139.3139  137.6836  161.2497 O.2     1  UNL1       -0.2522
      4 N         138.9917  140.0944  162.1631 N.am    1  UNL1       -0.2844
      5 H         139.1171  141.0662  162.0677 H       1  UNL1        0.1513
      6 C         140.4006  141.1955  159.7543 C.ar    1  UNL1        0.0553
      7 C         139.3814  142.0146  159.0193 C.ar    1  UNL1        0.0158
      8 C         139.5725  143.4952  158.8738 C.ar    1  UNL1        0.0127
      9 C         140.7829  144.1567  159.4633 C.ar    1  UNL1        0.0578
     10 CL        140.9740  145.6374  159.3178 Cl      1  UNL1       -0.0822
     11 C         141.8021  143.3376  160.1983 C.ar    1  UNL1        0.0127
     12 C         141.6109  141.8570  160.3438 C.ar    1  UNL1        0.0158
     13 N         141.7495  136.9245  156.7229 N.3     1  UNL1       -0.2688
     14 C         140.3093  137.3441  156.7186 C.3     1  UNL1        0.0741
     15 C         139.7960  138.2742  157.7775 C.3     1  UNL1        0.0376
     16 C         140.7228  138.7847  158.8408 C.3     1  UNL1        0.0840
     17 C         142.1628  138.3650  158.8451 C.3     1  UNL1        0.0376
     18 C         142.6762  137.4349  157.7862 C.3     1  UNL1        0.0741
     19 C         142.2628  135.9943  155.6640 C.3     1  UNL1        0.0993
     20 N         145.4440  132.5773  157.9452 N.pl3   1  UNL1       -0.3426
     21 C         144.2028  132.8699  157.1553 C.ar    1  UNL1        0.1251
     22 C         143.8534  134.2858  156.8046 C.ar    1  UNL1        0.0310
     23 C         142.6122  134.5783  156.0147 C.ar    1  UNL1       -0.0018
     24 C         141.7205  133.4550  155.5756 C.ar    1  UNL1        0.0179
     25 C         142.0700  132.0391  155.9263 C.ar    1  UNL1        0.1000
     26 N         143.3111  131.7465  156.7162 N.ar    1  UNL1       -0.2296
     27 H         146.0293  133.3146  158.2335 H       1  UNL1        0.1437
     28 H         145.6733  131.6480  158.1754 H       1  UNL1        0.1437
     29 C         138.2872  139.5438  163.3676 C.3     1  UNL1        0.1177
     30 C         138.9218  139.6524  164.7224 C.ar    1  UNL1       -0.0024
     31 C         140.3388  140.1273  164.8510 C.ar    1  UNL1       -0.0003
     32 C         140.9734  140.2360  166.2058 C.ar    1  UNL1        0.0294
     33 C         140.1909  139.8697  167.4321 C.ar    1  UNL1        0.1401
     34 F         140.8254  139.9783  168.7869 F       1  UNL1       -0.2042
     35 C         138.7739  139.3948  167.3035 C.ar    1  UNL1        0.0294
     36 C         138.1393  139.2862  165.9486 C.ar    1  UNL1       -0.0003
@<TRIPOS>BOND
     1    20    21    1
     2    21    22   ar
     3    22    23   ar
     4    23    19    1
     5    19    13    1
     6    13    14    1
     7    14    15    1
     8    15    16    1
     9    16     1    1
    10     1     2   am
    11     2     3    2
    12     2     4   am
    13     4    29    1
    14    29    30    1
    15    30    31   ar
    16    31    32   ar
    17    32    33   ar
    18    33    34    1
    19    33    35   ar
    20    35    36   ar
    21     1     6    1
    22     6     7   ar
    23     7     8   ar
    24     8     9   ar
    25     9    10    1
    26     9    11   ar
    27    11    12   ar
    28    16    17    1
    29    17    18    1
    30    23    24   ar
    31    24    25   ar
    32    25    26   ar
    33    26    21   ar
    34    18    13    1
    35    36    30   ar
    36    12     6   ar
    37    20    27    1
    38    20    28    1
    39     4     5    1
@<TRIPOS>MOLECULE
*****
 36 39 0 0 0
SMALL
GASTEIGER

@<TRIPOS>ATOM
      1 N         141.1080  140.3926  162.2862 N.am    1  UNL1       -0.2448
      2 C         141.7217  139.2309  161.5625 C.2     1  UNL1        0.3079
      3 O         141.9403  137.9314  162.2791 O.2     1  UNL1       -0.2522
      4 N         142.1168  139.3687  160.1220 N.am    1  UNL1       -0.2844
      5 H         141.9733  140.2215  159.6516 H       1  UNL1        0.1513
      6 C         140.8894  141.6921  161.5696 C.ar    1  UNL1        0.0553
      7 C         139.6355  141.9090  160.7755 C.ar    1  UNL1        0.0158
      8 C         139.4170  143.2085  160.0589 C.ar    1  UNL1        0.0127
      9 C         140.4524  144.2910  160.1363 C.ar    1  UNL1        0.0578
     10 CL        140.2338  145.5905  159.4196 Cl      1  UNL1       -0.0822
     11 C         141.7063  144.0741  160.9303 C.ar    1  UNL1        0.0127
     12 C         141.9249  142.7746  161.6470 C.ar    1  UNL1        0.0158
     13 N         139.9227  139.9793  166.6076 N.3     1  UNL1       -0.2688
     14 C         138.8788  139.9041  165.5331 C.3     1  UNL1        0.0741
     15 C         139.2739  140.0418  164.0926 C.3     1  UNL1        0.0376
     16 C         140.7129  140.2548  163.7267 C.3     1  UNL1        0.0840
     17 C         141.7568  140.3300  164.8012 C.3     1  UNL1        0.0376
     18 C         141.3617  140.1923  166.2417 C.3     1  UNL1        0.0741
     19 C         139.5276  139.8415  168.0481 C.3     1  UNL1        0.0993
     20 N         140.2817  144.5193  170.1812 N.pl3   1  UNL1       -0.3426
     21 C         140.5525  143.0442  170.1559 C.ar    1  UNL1        0.1251
     22 C         139.9047  142.1804  169.1147 C.ar    1  UNL1        0.0310
     23 C         140.1755  140.7053  169.0894 C.ar    1  UNL1       -0.0018
     24 C         141.0942  140.0939  170.1053 C.ar    1  UNL1        0.0179
     25 C         141.7420  140.9577  171.1466 C.ar    1  UNL1        0.1000
     26 N         141.4712  142.4328  171.1718 N.ar    1  UNL1       -0.2296
     27 H         139.6787  144.9206  169.5144 H       1  UNL1        0.1437
     28 H         140.7069  145.0862  170.8646 H       1  UNL1        0.1437
     29 C         142.7305  138.2069  159.3982 C.3     1  UNL1        0.1177
     30 C         142.0725  137.6581  158.1670 C.ar    1  UNL1       -0.0024
     31 C         140.6709  138.0651  157.8208 C.ar    1  UNL1       -0.0003
     32 C         140.0130  137.5163  156.5896 C.ar    1  UNL1        0.0294
     33 C         140.7567  136.5604  155.7046 C.ar    1  UNL1        0.1401
     34 F         140.0987  136.0115  154.4733 F       1  UNL1       -0.2042
     35 C         142.1582  136.1533  156.0508 C.ar    1  UNL1        0.0294
     36 C         142.8162  136.7022  157.2820 C.ar    1  UNL1       -0.0003
@<TRIPOS>BOND
     1    20    21    1
     2    21    22   ar
     3    22    23   ar
     4    23    19    1
     5    19    13    1
     6    13    14    1
     7    14    15    1
     8    15    16    1
     9    16     1    1
    10     1     2   am
    11     2     3    2
    12     2     4   am
    13     4    29    1
    14    29    30    1
    15    30    31   ar
    16    31    32   ar
    17    32    33   ar
    18    33    34    1
    19    33    35   ar
    20    35    36   ar
    21     1     6    1
    22     6     7   ar
    23     7     8   ar
    24     8     9   ar
    25     9    10    1
    26     9    11   ar
    27    11    12   ar
    28    16    17    1
    29    17    18    1
    30    23    24   ar
    31    24    25   ar
    32    25    26   ar
    33    26    21   ar
    34    18    13    1
    35    36    30   ar
    36    12     6   ar
    37    20    27    1
    38    20    28    1
    39     4     5    1
