@<TRIPOS>MOLECULE
*****
 32 35 0 0 0
SMALL
GASTEIGER

@<TRIPOS>ATOM
      1 N         138.9818  140.9780  163.5451 N.am    1  UNL1       -0.2658
      2 C         139.7896  140.1772  162.5672 C.2     1  UNL1        0.3083
      3 O         140.7402  139.1274  163.0615 O.2     1  UNL1       -0.2521
      4 N         139.6468  140.4263  161.0950 N.am    1  UNL1       -0.2667
      5 H         138.3579  141.6670  163.2206 H       1  UNL1        0.1565
      6 H         139.0229  141.1153  160.7705 H       1  UNL1        0.1565
      7 C         139.9559  141.6529  165.8571 C.ar    1  UNL1        0.1040
      8 C         139.1246  140.7289  165.0174 C.ar    1  UNL1        0.0871
      9 C         138.4362  139.5560  165.6499 C.ar    1  UNL1        0.1165
     10 N         138.5791  139.3069  167.1222 N.ar    1  UNL1       -0.2236
     11 C         139.4103  140.2309  167.9619 C.ar    1  UNL1        0.1660
     12 C         139.7325  140.2390  169.4269 C.ar    1  UNL1        0.0713
     13 C         140.6200  141.4170  169.6998 C.ar    1  UNL1        0.1613
     14 CL        141.1824  141.8068  171.0346 Cl      1  UNL1       -0.0594
     15 N         140.8464  142.1370  168.4035 N.ar    1  UNL1       -0.1523
     16 N         140.0988  141.4039  167.3294 N.ar    1  UNL1       -0.2118
     17 C         140.6443  142.8260  165.2246 C.3     1  UNL1        0.1564
     18 C         142.1423  142.9033  165.2198 C.3     1  UNL1        0.0387
     19 C         138.8160  144.6624  165.4115 C.3     1  UNL1        0.1745
     20 O         139.8347  143.9217  164.5969 O.3     1  UNL1       -0.3476
     21 C         140.4546  139.6255  160.1170 C.ar    1  UNL1        0.0719
     22 C         141.9414  139.5177  160.2830 C.ar    1  UNL1        0.1153
     23 N         142.7492  138.7169  159.3052 N.ar    1  UNL1       -0.2216
     24 C         142.0701  138.0240  158.1612 C.ar    1  UNL1        0.1944
     25 C         140.5833  138.1318  157.9951 C.ar    1  UNL1        0.0964
     26 CL        139.9042  137.4388  156.8512 Cl      1  UNL1       -0.0789
     27 C         139.7754  138.9326  158.9731 C.ar    1  UNL1        0.0308
     28 N         142.8779  137.2232  157.1833 N.ar    1  UNL1       -0.1288
     29 N         143.7714  137.7787  156.1142 N.ar    1  UNL1       -0.1432
     30 C         144.3798  136.6252  155.3729 C.ar    1  UNL1        0.1447
     31 C         143.8623  135.3569  155.9840 C.ar    1  UNL1        0.1447
     32 N         142.9341  135.7265  157.1029 N.ar    1  UNL1       -0.1432
@<TRIPOS>BOND
     1    19    20    1
     2    20    17    1
     3    17    18    1
     4    17     7    1
     5     7     8   ar
     6     8     1    1
     7     1     2   am
     8     2     3    2
     9     2     4   am
    10     4    21    1
    11    21    22   ar
    12    22    23   ar
    13    23    24   ar
    14    24    28    1
    15    28    29   ar
    16    29    30   ar
    17    30    31   ar
    18    31    32   ar
    19    24    25   ar
    20    25    26    1
    21    25    27   ar
    22     8     9   ar
    23     9    10   ar
    24    10    11   ar
    25    11    12   ar
    26    12    13   ar
    27    13    14    1
    28    13    15   ar
    29    15    16   ar
    30    16     7   ar
    31    27    21   ar
    32    16    11   ar
    33    32    28   ar
    34     1     5    1
    35     4     6    1
@<TRIPOS>MOLECULE
*****
 32 35 0 0 0
SMALL
GASTEIGER

@<TRIPOS>ATOM
      1 N         141.4488  138.4058  165.4605 N.am    1  UNL1       -0.2658
      2 C         141.8736  138.7664  164.0679 C.2     1  UNL1        0.3083
      3 O         142.4916  140.1058  163.7953 O.2     1  UNL1       -0.2521
      4 N         141.6805  137.7877  162.9477 N.am    1  UNL1       -0.2667
      5 H         141.0432  137.5268  165.6394 H       1  UNL1        0.1565
      6 H         141.2749  136.9086  163.1266 H       1  UNL1        0.1565
      7 C         140.7002  140.5417  166.7362 C.ar    1  UNL1        0.1040
      8 C         141.6420  139.3847  166.5806 C.ar    1  UNL1        0.0871
      9 C         142.7768  139.2064  167.5451 C.ar    1  UNL1        0.1165
     10 N         142.9700  140.1853  168.6652 N.ar    1  UNL1       -0.2236
     11 C         142.0282  141.3423  168.8208 C.ar    1  UNL1        0.1660
     12 C         141.9678  142.4600  169.8193 C.ar    1  UNL1        0.0713
     13 C         140.7956  143.3291  169.4719 C.ar    1  UNL1        0.1613
     14 CL        140.3634  144.5623  170.2084 Cl      1  UNL1       -0.0594
     15 N         140.1315  142.7485  168.2587 N.ar    1  UNL1       -0.1523
     16 N         140.8933  141.5206  167.8563 N.ar    1  UNL1       -0.2118
     17 C         139.5653  140.7200  165.7717 C.3     1  UNL1        0.1564
     18 C         139.5038  141.9415  164.9034 C.3     1  UNL1        0.0387
     19 C         138.0811  138.9084  166.8965 C.3     1  UNL1        0.1745
     20 O         138.4919  139.6766  165.6755 O.3     1  UNL1       -0.3476
     21 C         142.1054  138.1483  161.5550 C.ar    1  UNL1        0.0719
     22 C         143.5602  138.3281  161.2376 C.ar    1  UNL1        0.1153
     23 N         143.9851  138.6887  159.8449 N.ar    1  UNL1       -0.2216
     24 C         142.9550  138.8695  158.7697 C.ar    1  UNL1        0.1944
     25 C         141.5000  138.6897  159.0871 C.ar    1  UNL1        0.0964
     26 CL        140.4699  138.8705  158.0119 Cl      1  UNL1       -0.0789
     27 C         141.0751  138.3291  160.4798 C.ar    1  UNL1        0.0308
     28 N         143.3798  139.2301  157.3771 N.ar    1  UNL1       -0.1288
     29 N         143.5326  140.6199  156.8339 N.ar    1  UNL1       -0.1432
     30 C         143.9737  140.5130  155.4042 C.ar    1  UNL1        0.1447
     31 C         144.0935  139.0571  155.0638 C.ar    1  UNL1        0.1447
     32 N         143.7264  138.2642  156.2831 N.ar    1  UNL1       -0.1432
@<TRIPOS>BOND
     1    19    20    1
     2    20    17    1
     3    17    18    1
     4    17     7    1
     5     7     8   ar
     6     8     1    1
     7     1     2   am
     8     2     3    2
     9     2     4   am
    10     4    21    1
    11    21    22   ar
    12    22    23   ar
    13    23    24   ar
    14    24    28    1
    15    28    29   ar
    16    29    30   ar
    17    30    31   ar
    18    31    32   ar
    19    24    25   ar
    20    25    26    1
    21    25    27   ar
    22     8     9   ar
    23     9    10   ar
    24    10    11   ar
    25    11    12   ar
    26    12    13   ar
    27    13    14    1
    28    13    15   ar
    29    15    16   ar
    30    16     7   ar
    31    27    21   ar
    32    16    11   ar
    33    32    28   ar
    34     1     5    1
    35     4     6    1
@<TRIPOS>MOLECULE
*****
 32 35 0 0 0
SMALL
GASTEIGER

@<TRIPOS>ATOM
      1 N         140.1346  137.7693  163.9858 N.am    1  UNL1       -0.2658
      2 C         139.9737  138.5223  162.6985 C.2     1  UNL1        0.3083
      3 O         140.5249  139.9112  162.5680 O.2     1  UNL1       -0.2521
      4 N         139.2614  137.8864  161.5417 N.am    1  UNL1       -0.2667
      5 H         139.7728  136.8578  164.0715 H       1  UNL1        0.1565
      6 H         138.8995  136.9748  161.6274 H       1  UNL1        0.1565
      7 C         140.0690  139.1622  166.1780 C.ar    1  UNL1        0.1040
      8 C         140.8470  138.4054  165.1426 C.ar    1  UNL1        0.0871
      9 C         142.3371  138.2846  165.2640 C.ar    1  UNL1        0.1165
     10 N         143.0494  138.9206  166.4208 N.ar    1  UNL1       -0.2236
     11 C         142.2715  139.6774  167.4562 C.ar    1  UNL1        0.1660
     12 C         142.6959  140.4049  168.6974 C.ar    1  UNL1        0.0713
     13 C         141.4680  140.9752  169.3432 C.ar    1  UNL1        0.1613
     14 CL        141.4301  141.7794  170.6088 Cl      1  UNL1       -0.0594
     15 N         140.2847  140.6003  168.5010 N.ar    1  UNL1       -0.1523
     16 N         140.7813  139.7982  167.3348 N.ar    1  UNL1       -0.2118
     17 C         138.5788  139.2829  166.0566 C.3     1  UNL1        0.1564
     18 C         137.6861  138.5276  166.9961 C.3     1  UNL1        0.0387
     19 C         138.4313  141.5832  164.8579 C.3     1  UNL1        0.1745
     20 O         137.9813  140.1590  164.9957 O.3     1  UNL1       -0.3476
     21 C         139.1004  138.6394  160.2544 C.ar    1  UNL1        0.0719
     22 C         137.9438  139.5772  160.0737 C.ar    1  UNL1        0.1153
     23 N         137.7828  140.3301  158.7864 N.ar    1  UNL1       -0.2216
     24 C         138.7784  140.1452  157.6798 C.ar    1  UNL1        0.1944
     25 C         139.9351  139.2073  157.8605 C.ar    1  UNL1        0.0964
     26 CL        140.9307  139.0224  156.7539 Cl      1  UNL1       -0.0789
     27 C         140.0961  138.4543  159.1478 C.ar    1  UNL1        0.0308
     28 N         138.6174  140.8982  156.3925 N.ar    1  UNL1       -0.1288
     29 N         139.3549  142.1447  156.0021 N.ar    1  UNL1       -0.1432
     30 C         138.8839  142.5538  154.6379 C.ar    1  UNL1        0.1447
     31 C         137.8555  141.5601  154.1853 C.ar    1  UNL1        0.1447
     32 N         137.6908  140.5369  155.2697 N.ar    1  UNL1       -0.1432
@<TRIPOS>BOND
     1    19    20    1
     2    20    17    1
     3    17    18    1
     4    17     7    1
     5     7     8   ar
     6     8     1    1
     7     1     2   am
     8     2     3    2
     9     2     4   am
    10     4    21    1
    11    21    22   ar
    12    22    23   ar
    13    23    24   ar
    14    24    28    1
    15    28    29   ar
    16    29    30   ar
    17    30    31   ar
    18    31    32   ar
    19    24    25   ar
    20    25    26    1
    21    25    27   ar
    22     8     9   ar
    23     9    10   ar
    24    10    11   ar
    25    11    12   ar
    26    12    13   ar
    27    13    14    1
    28    13    15   ar
    29    15    16   ar
    30    16     7   ar
    31    27    21   ar
    32    16    11   ar
    33    32    28   ar
    34     1     5    1
    35     4     6    1
@<TRIPOS>MOLECULE
*****
 32 35 0 0 0
SMALL
GASTEIGER

@<TRIPOS>ATOM
      1 N         141.5916  144.0890  162.6002 N.am    1  UNL1       -0.2658
      2 C         141.4316  144.0361  161.1097 C.2     1  UNL1        0.3083
      3 O         141.0061  142.7601  160.4458 O.2     1  UNL1       -0.2521
      4 N         141.6970  145.2593  160.2831 N.am    1  UNL1       -0.2667
      5 H         141.8709  144.9265  163.0359 H       1  UNL1        0.1565
      6 H         141.9763  146.0968  160.7188 H       1  UNL1        0.1565
      7 C         139.9234  142.5273  163.8364 C.ar    1  UNL1        0.1040
      8 C         141.3262  142.8657  163.4268 C.ar    1  UNL1        0.0871
      9 C         142.4633  141.9810  163.8438 C.ar    1  UNL1        0.1165
     10 N         142.1979  140.7577  164.6704 N.ar    1  UNL1       -0.2236
     11 C         140.7951  140.4193  165.0800 C.ar    1  UNL1        0.1660
     12 C         140.2306  139.2884  165.8877 C.ar    1  UNL1        0.0713
     13 C         138.7444  139.4743  165.9698 C.ar    1  UNL1        0.1613
     14 CL        137.7812  138.5727  166.6835 Cl      1  UNL1       -0.0594
     15 N         138.3905  140.7200  165.2129 N.ar    1  UNL1       -0.1523
     16 N         139.6579  141.3041  164.6630 N.ar    1  UNL1       -0.2118
     17 C         138.7862  143.4121  163.4194 C.3     1  UNL1        0.1564
     18 C         137.7829  142.9220  162.4178 C.3     1  UNL1        0.0387
     19 C         138.6310  144.9702  165.4926 C.3     1  UNL1        0.1745
     20 O         138.6522  144.7870  164.0041 O.3     1  UNL1       -0.3476
     21 C         141.5370  145.2064  158.7925 C.ar    1  UNL1        0.0719
     22 C         142.5335  144.4588  157.9572 C.ar    1  UNL1        0.1153
     23 N         142.3735  144.4059  156.4668 N.ar    1  UNL1       -0.2216
     24 C         141.2169  145.1008  155.8115 C.ar    1  UNL1        0.1944
     25 C         140.2202  145.8485  156.6468 C.ar    1  UNL1        0.0964
     26 CL        139.0636  146.5433  155.9916 Cl      1  UNL1       -0.0789
     27 C         140.3803  145.9013  158.1374 C.ar    1  UNL1        0.0308
     28 N         141.0569  145.0479  154.3210 N.ar    1  UNL1       -0.1288
     29 N         141.5211  146.0899  153.3470 N.ar    1  UNL1       -0.1432
     30 C         141.1557  145.6298  151.9668 C.ar    1  UNL1        0.1447
     31 C         140.4657  144.3035  152.0879 C.ar    1  UNL1        0.1447
     32 N         140.4046  143.9438  153.5429 N.ar    1  UNL1       -0.1432
@<TRIPOS>BOND
     1    19    20    1
     2    20    17    1
     3    17    18    1
     4    17     7    1
     5     7     8   ar
     6     8     1    1
     7     1     2   am
     8     2     3    2
     9     2     4   am
    10     4    21    1
    11    21    22   ar
    12    22    23   ar
    13    23    24   ar
    14    24    28    1
    15    28    29   ar
    16    29    30   ar
    17    30    31   ar
    18    31    32   ar
    19    24    25   ar
    20    25    26    1
    21    25    27   ar
    22     8     9   ar
    23     9    10   ar
    24    10    11   ar
    25    11    12   ar
    26    12    13   ar
    27    13    14    1
    28    13    15   ar
    29    15    16   ar
    30    16     7   ar
    31    27    21   ar
    32    16    11   ar
    33    32    28   ar
    34     1     5    1
    35     4     6    1
@<TRIPOS>MOLECULE
*****
 32 35 0 0 0
SMALL
GASTEIGER

@<TRIPOS>ATOM
      1 N         138.1268  142.9547  160.5186 N.am    1  UNL1       -0.2658
      2 C         138.7135  142.4199  161.7913 C.2     1  UNL1        0.3083
      3 O         140.0354  141.7113  161.7682 O.2     1  UNL1       -0.2521
      4 N         137.9783  142.5937  163.0872 N.am    1  UNL1       -0.2667
      5 H         137.2592  143.4197  160.5339 H       1  UNL1        0.1565
      6 H         137.1107  143.0587  163.1024 H       1  UNL1        0.1565
      7 C         140.0760  143.6126  158.9319 C.ar    1  UNL1        0.1040
      8 C         138.8620  142.7809  159.2227 C.ar    1  UNL1        0.0871
      9 C         138.3834  141.7755  158.2179 C.ar    1  UNL1        0.1165
     10 N         139.1187  141.6017  156.9220 N.ar    1  UNL1       -0.2236
     11 C         140.3326  142.4334  156.6311 C.ar    1  UNL1        0.1660
     12 C         141.2549  142.4839  155.4493 C.ar    1  UNL1        0.0713
     13 C         142.3036  143.5206  155.7238 C.ar    1  UNL1        0.1613
     14 CL        143.4290  143.9005  154.8078 Cl      1  UNL1       -0.0594
     15 N         142.0294  144.1108  157.0753 N.ar    1  UNL1       -0.1523
     16 N         140.8112  143.4388  157.6361 N.ar    1  UNL1       -0.2118
     17 C         140.5546  144.6181  159.9368 C.3     1  UNL1        0.1564
     18 C         141.9037  144.4590  160.5729 C.3     1  UNL1        0.0387
     19 C         139.6842  146.3032  161.7125 C.3     1  UNL1        0.1745
     20 O         139.6841  145.7827  160.3057 O.3     1  UNL1       -0.3476
     21 C         138.5651  142.0588  164.3600 C.ar    1  UNL1        0.0719
     22 C         139.5361  142.8896  165.1454 C.ar    1  UNL1        0.1153
     23 N         140.1228  142.3548  166.4180 N.ar    1  UNL1       -0.2216
     24 C         139.7385  140.9892  166.9053 C.ar    1  UNL1        0.1944
     25 C         138.7675  140.1584  166.1199 C.ar    1  UNL1        0.0964
     26 CL        138.3832  138.7928  166.6072 Cl      1  UNL1       -0.0789
     27 C         138.1807  140.6932  164.8471 C.ar    1  UNL1        0.0308
     28 N         140.3252  140.4545  168.1780 N.ar    1  UNL1       -0.1288
     29 N         139.6603  140.4521  169.5226 N.ar    1  UNL1       -0.1432
     30 C         140.6040  139.8243  170.5052 C.ar    1  UNL1        0.1447
     31 C         141.8521  139.4388  169.7679 C.ar    1  UNL1        0.1447
     32 N         141.6798  139.8283  168.3296 N.ar    1  UNL1       -0.1432
@<TRIPOS>BOND
     1    19    20    1
     2    20    17    1
     3    17    18    1
     4    17     7    1
     5     7     8   ar
     6     8     1    1
     7     1     2   am
     8     2     3    2
     9     2     4   am
    10     4    21    1
    11    21    22   ar
    12    22    23   ar
    13    23    24   ar
    14    24    28    1
    15    28    29   ar
    16    29    30   ar
    17    30    31   ar
    18    31    32   ar
    19    24    25   ar
    20    25    26    1
    21    25    27   ar
    22     8     9   ar
    23     9    10   ar
    24    10    11   ar
    25    11    12   ar
    26    12    13   ar
    27    13    14    1
    28    13    15   ar
    29    15    16   ar
    30    16     7   ar
    31    27    21   ar
    32    16    11   ar
    33    32    28   ar
    34     1     5    1
    35     4     6    1
@<TRIPOS>MOLECULE
*****
 32 35 0 0 0
SMALL
GASTEIGER

@<TRIPOS>ATOM
      1 N         140.4024  140.7971  161.8780 N.am    1  UNL1       -0.2658
      2 C         140.6019  139.6809  160.8960 C.2     1  UNL1        0.3083
      3 O         140.4067  138.2578  161.3282 O.2     1  UNL1       -0.2521
      4 N         140.9967  139.9877  159.4818 N.am    1  UNL1       -0.2667
      5 H         140.5306  141.7311  161.5944 H       1  UNL1        0.1565
      6 H         141.1248  140.9217  159.1982 H       1  UNL1        0.1565
      7 C         141.0137  140.6217  164.3971 C.ar    1  UNL1        0.1040
      8 C         140.0077  140.4901  163.2923 C.ar    1  UNL1        0.0871
      9 C         138.6070  140.0517  163.6017 C.ar    1  UNL1        0.1165
     10 N         138.2122  139.7448  165.0159 N.ar    1  UNL1       -0.2236
     11 C         139.2183  139.8763  166.1207 C.ar    1  UNL1        0.1660
     12 C         139.1211  139.6445  167.5995 C.ar    1  UNL1        0.0713
     13 C         140.4617  139.9398  168.2040 C.ar    1  UNL1        0.1613
     14 CL        140.8147  139.8385  169.6584 Cl      1  UNL1       -0.0594
     15 N         141.3875  140.3540  167.0989 N.ar    1  UNL1       -0.1523
     16 N         140.6190  140.3148  165.8113 N.ar    1  UNL1       -0.2118
     17 C         142.4144  141.0602  164.0876 C.3     1  UNL1        0.1564
     18 C         142.9550  142.3234  164.6892 C.3     1  UNL1        0.0387
     19 C         143.3312  138.7458  163.3437 C.3     1  UNL1        0.1745
     20 O         143.2745  140.2353  163.1766 O.3     1  UNL1       -0.3476
     21 C         141.1962  138.8715  158.4998 C.ar    1  UNL1        0.0719
     22 C         142.5233  138.1781  158.4120 C.ar    1  UNL1        0.1153
     23 N         142.7228  137.0619  157.4300 N.ar    1  UNL1       -0.2216
     24 C         141.5952  136.6391  156.5358 C.ar    1  UNL1        0.1944
     25 C         140.2679  137.3326  156.6236 C.ar    1  UNL1        0.0964
     26 CL        139.1403  136.9098  155.7294 Cl      1  UNL1       -0.0789
     27 C         140.0684  138.4488  157.6057 C.ar    1  UNL1        0.0308
     28 N         141.7947  135.5230  155.5538 N.ar    1  UNL1       -0.1288
     29 N         141.9675  135.6732  154.0714 N.ar    1  UNL1       -0.1432
     30 C         142.1361  134.3037  153.4832 C.ar    1  UNL1        0.1447
     31 C         142.0674  133.3070  154.6021 C.ar    1  UNL1        0.1447
     32 N         141.8564  134.0606  155.8818 N.ar    1  UNL1       -0.1432
@<TRIPOS>BOND
     1    19    20    1
     2    20    17    1
     3    17    18    1
     4    17     7    1
     5     7     8   ar
     6     8     1    1
     7     1     2   am
     8     2     3    2
     9     2     4   am
    10     4    21    1
    11    21    22   ar
    12    22    23   ar
    13    23    24   ar
    14    24    28    1
    15    28    29   ar
    16    29    30   ar
    17    30    31   ar
    18    31    32   ar
    19    24    25   ar
    20    25    26    1
    21    25    27   ar
    22     8     9   ar
    23     9    10   ar
    24    10    11   ar
    25    11    12   ar
    26    12    13   ar
    27    13    14    1
    28    13    15   ar
    29    15    16   ar
    30    16     7   ar
    31    27    21   ar
    32    16    11   ar
    33    32    28   ar
    34     1     5    1
    35     4     6    1
@<TRIPOS>MOLECULE
*****
 32 35 0 0 0
SMALL
GASTEIGER

@<TRIPOS>ATOM
      1 N         141.1169  142.2010  163.6743 N.am    1  UNL1       -0.2658
      2 C         141.5599  141.1813  162.6675 C.2     1  UNL1        0.3083
      3 O         142.2019  139.9051  163.1250 O.2     1  UNL1       -0.2521
      4 N         141.3611  141.4377  161.2030 N.am    1  UNL1       -0.2667
      5 H         140.6956  143.0386  163.3740 H       1  UNL1        0.1565
      6 H         140.9398  142.2753  160.9027 H       1  UNL1        0.1565
      7 C         140.2372  141.2724  165.9357 C.ar    1  UNL1        0.1040
      8 C         141.3157  141.9445  165.1389 C.ar    1  UNL1        0.0871
      9 C         142.5930  142.3601  165.8064 C.ar    1  UNL1        0.1165
     10 N         142.7919  142.1036  167.2710 N.ar    1  UNL1       -0.2236
     11 C         141.7133  141.4315  168.0678 C.ar    1  UNL1        0.1660
     12 C         141.6250  141.0501  169.5158 C.ar    1  UNL1        0.0713
     13 C         140.2931  140.3987  169.7431 C.ar    1  UNL1        0.1613
     14 CL        139.7852  139.8625  171.0487 Cl      1  UNL1       -0.0594
     15 N         139.5582  140.3775  168.4356 N.ar    1  UNL1       -0.1523
     16 N         140.4360  141.0159  167.4002 N.ar    1  UNL1       -0.2118
     17 C         138.9599  140.8568  165.2681 C.3     1  UNL1        0.1564
     18 C         138.5048  139.4294  165.3423 C.3     1  UNL1        0.0387
     19 C         137.4466  141.4843  163.2516 C.3     1  UNL1        0.1745
     20 O         138.1376  141.8686  164.5262 O.3     1  UNL1       -0.3476
     21 C         141.8042  140.4179  160.1961 C.ar    1  UNL1        0.0719
     22 C         143.2667  140.1726  159.9708 C.ar    1  UNL1        0.1153
     23 N         143.7097  139.1529  158.9639 N.ar    1  UNL1       -0.2216
     24 C         142.6903  138.3785  158.1823 C.ar    1  UNL1        0.1944
     25 C         141.2277  138.6238  158.4076 C.ar    1  UNL1        0.0964
     26 CL        140.2082  137.8494  157.6260 Cl      1  UNL1       -0.0789
     27 C         140.7846  139.6436  159.4145 C.ar    1  UNL1        0.0308
     28 N         143.1333  137.3587  157.1754 N.ar    1  UNL1       -0.1288
     29 N         142.8249  135.8913  157.2125 N.ar    1  UNL1       -0.1432
     30 C         143.4636  135.2530  156.0146 C.ar    1  UNL1        0.1447
     31 C         144.1667  136.3260  155.2373 C.ar    1  UNL1        0.1447
     32 N         143.9626  137.6274  155.9547 N.ar    1  UNL1       -0.1432
@<TRIPOS>BOND
     1    19    20    1
     2    20    17    1
     3    17    18    1
     4    17     7    1
     5     7     8   ar
     6     8     1    1
     7     1     2   am
     8     2     3    2
     9     2     4   am
    10     4    21    1
    11    21    22   ar
    12    22    23   ar
    13    23    24   ar
    14    24    28    1
    15    28    29   ar
    16    29    30   ar
    17    30    31   ar
    18    31    32   ar
    19    24    25   ar
    20    25    26    1
    21    25    27   ar
    22     8     9   ar
    23     9    10   ar
    24    10    11   ar
    25    11    12   ar
    26    12    13   ar
    27    13    14    1
    28    13    15   ar
    29    15    16   ar
    30    16     7   ar
    31    27    21   ar
    32    16    11   ar
    33    32    28   ar
    34     1     5    1
    35     4     6    1
@<TRIPOS>MOLECULE
*****
 32 35 0 0 0
SMALL
GASTEIGER

@<TRIPOS>ATOM
      1 N         141.3022  142.2304  162.5938 N.am    1  UNL1       -0.2658
      2 C         141.5952  141.0907  161.6637 C.2     1  UNL1        0.3083
      3 O         141.9915  139.7539  162.2170 O.2     1  UNL1       -0.2521
      4 N         141.4920  141.2876  160.1803 N.am    1  UNL1       -0.2667
      5 H         141.0421  143.1078  162.2306 H       1  UNL1        0.1565
      6 H         141.2319  142.1649  159.8171 H       1  UNL1        0.1565
      7 C         142.5963  142.5593  164.8225 C.ar    1  UNL1        0.1040
      8 C         141.4055  142.0334  164.0773 C.ar    1  UNL1        0.0871
      9 C         140.3180  141.3107  164.8154 C.ar    1  UNL1        0.1165
     10 N         140.4213  141.1137  166.2989 N.ar    1  UNL1       -0.2236
     11 C         141.6121  141.6395  167.0441 C.ar    1  UNL1        0.1660
     12 C         141.9866  141.5967  168.4959 C.ar    1  UNL1        0.0713
     13 C         143.3056  142.2930  168.6551 C.ar    1  UNL1        0.1613
     14 CL        144.0528  142.4829  169.9418 Cl      1  UNL1       -0.0594
     15 N         143.7463  142.7662  167.3016 N.ar    1  UNL1       -0.1523
     16 N         142.6996  142.3623  166.3059 N.ar    1  UNL1       -0.2118
     17 C         143.6838  143.2820  164.0843 C.3     1  UNL1        0.1564
     18 C         143.6364  144.7755  163.9526 C.3     1  UNL1        0.0387
     19 C         145.0243  141.0700  163.8388 C.3     1  UNL1        0.1745
     20 O         144.8189  142.5113  163.4778 O.3     1  UNL1       -0.3476
     21 C         141.7850  140.1478  159.2502 C.ar    1  UNL1        0.0719
     22 C         143.2055  139.7763  158.9434 C.ar    1  UNL1        0.1153
     23 N         143.4985  138.6366  158.0133 N.ar    1  UNL1       -0.2216
     24 C         142.3710  137.8683  157.3900 C.ar    1  UNL1        0.1944
     25 C         140.9505  138.2397  157.6968 C.ar    1  UNL1        0.0964
     26 CL        139.8230  137.4714  157.0735 Cl      1  UNL1       -0.0789
     27 C         140.6575  139.3796  158.6270 C.ar    1  UNL1        0.0308
     28 N         142.6641  136.7285  156.4600 N.ar    1  UNL1       -0.1288
     29 N         142.3951  136.7031  154.9845 N.ar    1  UNL1       -0.1432
     30 C         142.8424  135.3729  154.4546 C.ar    1  UNL1        0.1447
     31 C         143.3877  134.5763  155.6027 C.ar    1  UNL1        0.1447
     32 N         143.2775  135.4141  156.8420 N.ar    1  UNL1       -0.1432
@<TRIPOS>BOND
     1    19    20    1
     2    20    17    1
     3    17    18    1
     4    17     7    1
     5     7     8   ar
     6     8     1    1
     7     1     2   am
     8     2     3    2
     9     2     4   am
    10     4    21    1
    11    21    22   ar
    12    22    23   ar
    13    23    24   ar
    14    24    28    1
    15    28    29   ar
    16    29    30   ar
    17    30    31   ar
    18    31    32   ar
    19    24    25   ar
    20    25    26    1
    21    25    27   ar
    22     8     9   ar
    23     9    10   ar
    24    10    11   ar
    25    11    12   ar
    26    12    13   ar
    27    13    14    1
    28    13    15   ar
    29    15    16   ar
    30    16     7   ar
    31    27    21   ar
    32    16    11   ar
    33    32    28   ar
    34     1     5    1
    35     4     6    1
@<TRIPOS>MOLECULE
*****
 32 35 0 0 0
SMALL
GASTEIGER

@<TRIPOS>ATOM
      1 N         139.1775  141.6404  163.1742 N.am    1  UNL1       -0.2658
      2 C         140.3600  141.7208  162.2550 C.2     1  UNL1        0.3083
      3 O         141.7286  141.3733  162.7612 O.2     1  UNL1       -0.2521
      4 N         140.1740  142.1488  160.8294 N.am    1  UNL1       -0.2667
      5 H         138.2792  141.8685  162.8420 H       1  UNL1        0.1565
      6 H         139.2758  142.3769  160.4971 H       1  UNL1        0.1565
      7 C         139.7833  142.2138  165.6348 C.ar    1  UNL1        0.1040
      8 C         139.3635  141.2124  164.5998 C.ar    1  UNL1        0.0871
      9 C         139.1298  139.7832  164.9904 C.ar    1  UNL1        0.1165
     10 N         139.3158  139.3552  166.4161 N.ar    1  UNL1       -0.2236
     11 C         139.7357  140.3566  167.4510 C.ar    1  UNL1        0.1660
     12 C         139.9961  140.2297  168.9227 C.ar    1  UNL1        0.0713
     13 C         140.3908  141.5806  169.4417 C.ar    1  UNL1        0.1613
     14 CL        140.7406  141.9117  170.8622 Cl      1  UNL1       -0.0594
     15 N         140.3743  142.5423  168.2907 N.ar    1  UNL1       -0.1523
     16 N         139.9694  141.7858  167.0603 N.ar    1  UNL1       -0.2118
     17 C         140.0171  143.6430  165.2441 C.3     1  UNL1        0.1564
     18 C         138.9107  144.6472  165.3763 C.3     1  UNL1        0.0387
     19 C         141.4445  145.0596  163.5992 C.3     1  UNL1        0.1745
     20 O         141.3573  144.0681  164.7213 O.3     1  UNL1       -0.3476
     21 C         141.3566  142.2293  159.9100 C.ar    1  UNL1        0.0719
     22 C         142.0665  143.5359  159.7138 C.ar    1  UNL1        0.1153
     23 N         143.2490  143.6164  158.7945 N.ar    1  UNL1       -0.2216
     24 C         143.7217  142.3901  158.0715 C.ar    1  UNL1        0.1944
     25 C         143.0118  141.0833  158.2678 C.ar    1  UNL1        0.0964
     26 CL        143.4845  139.8570  157.5448 Cl      1  UNL1       -0.0789
     27 C         141.8292  141.0029  159.1871 C.ar    1  UNL1        0.0308
     28 N         144.9042  142.4705  157.1522 N.ar    1  UNL1       -0.1288
     29 N         146.3430  142.5407  157.5706 N.ar    1  UNL1       -0.1432
     30 C         147.1837  142.6085  156.3301 C.ar    1  UNL1        0.1447
     31 C         146.2644  142.5802  155.1451 C.ar    1  UNL1        0.1447
     32 N         144.8557  142.4950  155.6532 N.ar    1  UNL1       -0.1432
@<TRIPOS>BOND
     1    19    20    1
     2    20    17    1
     3    17    18    1
     4    17     7    1
     5     7     8   ar
     6     8     1    1
     7     1     2   am
     8     2     3    2
     9     2     4   am
    10     4    21    1
    11    21    22   ar
    12    22    23   ar
    13    23    24   ar
    14    24    28    1
    15    28    29   ar
    16    29    30   ar
    17    30    31   ar
    18    31    32   ar
    19    24    25   ar
    20    25    26    1
    21    25    27   ar
    22     8     9   ar
    23     9    10   ar
    24    10    11   ar
    25    11    12   ar
    26    12    13   ar
    27    13    14    1
    28    13    15   ar
    29    15    16   ar
    30    16     7   ar
    31    27    21   ar
    32    16    11   ar
    33    32    28   ar
    34     1     5    1
    35     4     6    1
