@<TRIPOS>MOLECULE
*****
 28 30 0 0 0
SMALL
GASTEIGER

@<TRIPOS>ATOM
      1 C         139.9661  143.3755  164.1187 C.ar    0  UNK0        0.1387
      2 C         140.6042  142.8343  162.8737 C.ar    0  UNK0        0.0370
      3 C         141.5507  141.6739  162.9596 C.ar    0  UNK0        0.0048
      4 C         141.8593  141.0546  164.2905 C.ar    0  UNK0        0.0224
      5 C         142.8058  139.8941  164.3764 C.ar    1  UNK1        0.1351
      6 N         143.1143  139.2748  165.7072 N.ar    1  UNK1       -0.2305
      7 C         142.4763  139.8160  166.9523 C.ar    0  UNK0        0.1492
      8 C         141.5297  140.9764  166.8664 C.ar    0  UNK0        0.0276
      9 C         141.2212  141.5957  165.5354 C.ar    0  UNK0        0.0067
     10 C         140.2746  142.7562  165.4495 C.ar    0  UNK0        0.0370
     11 C         140.8916  141.5176  168.1114 C.ar    0  UNK0        0.0021
     12 C         141.3710  142.8123  168.6979 C.ar    0  UNK0        0.0001
     13 C         140.7329  143.3534  169.9429 C.ar    0  UNK0        0.0000
     14 C         139.6155  142.5999  170.6014 C.ar    0  UNK0        0.0000
     15 C         139.1361  141.3052  170.0148 C.ar    0  UNK0        0.0000
     16 C         139.7742  140.7640  168.7699 C.ar    0  UNK0        0.0001
     17 C         143.4439  139.3530  163.1314 C.2     1  UNK1        0.2637
     18 O         144.6854  139.9938  162.5855 O.2     1  UNK1       -0.2685
     19 N         142.8404  138.1710  162.4323 N.am    2  GLY2       -0.2972
     20 H         142.0256  137.7504  162.7905 H       2  GLY2        0.1499
     21 CA        143.4786  137.6298  161.1872 C.3     2  GLY2        0.1216
     22 C         143.2535  138.3134  159.8712 C.3     2  GLY2        0.1583
     23 O         144.0806  139.5069  159.4948 O.3     2  GLY2       -0.3802
     24 H         143.8803  140.2415  160.0957 H       2  GLY2        0.2105
     25 C         137.7179  144.3895  163.3019 C.3     0  UNK0        0.2525
     26 O         139.0196  144.5359  164.0328 O.3     0  UNK0       -0.4714
     27 C         142.7848  139.1967  168.2831 C.1     0  UNK0        0.1198
     28 N         143.0933  138.5773  169.6141 N.1     0  UNK0       -0.1893
@<TRIPOS>BOND
     1    25    26    1
     2    26     1    1
     3     1     2   ar
     4     2     3   ar
     5     3     4   ar
     6     4     5   ar
     7     5    17    1
     8    17    18    2
     9    17    19   am
    10    19    21    1
    11    21    22    1
    12    22    23    1
    13     5     6   ar
    14     6     7   ar
    15     7    27    1
    16    27    28    3
    17     7     8   ar
    18     8    11    1
    19    11    12   ar
    20    12    13   ar
    21    13    14   ar
    22    14    15   ar
    23    15    16   ar
    24     8     9   ar
    25     9    10   ar
    26    10     1   ar
    27     9     4   ar
    28    16    11   ar
    29    19    20    1
    30    23    24    1
@<TRIPOS>MOLECULE
*****
 28 30 0 0 0
SMALL
GASTEIGER

@<TRIPOS>ATOM
      1 C         142.7377  143.1735  164.2485 C.ar    0  UNK0        0.1387
      2 C         141.9573  142.6189  163.0938 C.ar    0  UNK0        0.0370
      3 C         140.8025  141.6948  163.3439 C.ar    0  UNK0        0.0048
      4 C         140.4280  141.3255  164.7486 C.ar    0  UNK0        0.0224
      5 C         139.2732  140.4014  164.9987 C.ar    1  UNK1        0.1351
      6 N         138.8988  140.0321  166.4034 N.ar    1  UNK1       -0.2305
      7 C         139.6792  140.5867  167.5582 C.ar    0  UNK0        0.1492
      8 C         140.8340  141.5108  167.3081 C.ar    0  UNK0        0.0276
      9 C         141.2084  141.8801  165.9033 C.ar    0  UNK0        0.0067
     10 C         142.3633  142.8042  165.6532 C.ar    0  UNK0        0.0370
     11 C         141.6144  142.0654  168.4628 C.ar    0  UNK0        0.0021
     12 C         141.0432  143.1806  169.2875 C.ar    0  UNK0        0.0001
     13 C         141.8237  143.7353  170.4422 C.ar    0  UNK0        0.0000
     14 C         143.1753  143.1748  170.7721 C.ar    0  UNK0        0.0000
     15 C         143.7465  142.0596  169.9474 C.ar    0  UNK0        0.0000
     16 C         142.9661  141.5050  168.7928 C.ar    0  UNK0        0.0001
     17 C         138.4928  139.8468  163.8441 C.2     1  UNK1        0.2637
     18 O         137.3214  140.6070  163.2962 O.2     1  UNK1       -0.2685
     19 N         138.8837  138.5319  163.2372 N.am    2  GLY2       -0.2972
     20 H         139.6525  138.0329  163.5967 H       2  GLY2        0.1499
     21 CA        138.1032  137.9772  162.0825 C.3     2  GLY2        0.1216
     22 C         137.9866  138.7626  160.8098 C.3     2  GLY2        0.1583
     23 O         136.7884  139.6333  160.5730 O.3     2  GLY2       -0.3802
     24 H         135.9963  139.0790  160.4948 H       2  GLY2        0.2105
     25 C         144.3123  144.4100  162.5927 C.3     0  UNK0        0.2525
     26 O         143.8925  144.0975  163.9984 O.3     0  UNK0       -0.4714
     27 C         139.3048  140.2174  168.9629 C.1     0  UNK0        0.1198
     28 N         138.9304  139.8480  170.3677 N.1     0  UNK0       -0.1893
@<TRIPOS>BOND
     1    25    26    1
     2    26     1    1
     3     1     2   ar
     4     2     3   ar
     5     3     4   ar
     6     4     5   ar
     7     5    17    1
     8    17    18    2
     9    17    19   am
    10    19    21    1
    11    21    22    1
    12    22    23    1
    13     5     6   ar
    14     6     7   ar
    15     7    27    1
    16    27    28    3
    17     7     8   ar
    18     8    11    1
    19    11    12   ar
    20    12    13   ar
    21    13    14   ar
    22    14    15   ar
    23    15    16   ar
    24     8     9   ar
    25     9    10   ar
    26    10     1   ar
    27     9     4   ar
    28    16    11   ar
    29    19    20    1
    30    23    24    1
@<TRIPOS>MOLECULE
*****
 28 30 0 0 0
SMALL
GASTEIGER

@<TRIPOS>ATOM
      1 C         139.3933  144.6393  163.4900 C.ar    0  UNK0        0.1387
      2 C         138.8297  144.6629  164.8799 C.ar    0  UNK0        0.0370
      3 C         139.4302  143.7970  165.9475 C.ar    0  UNK0        0.0048
      4 C         140.5943  142.9077  165.6252 C.ar    0  UNK0        0.0224
      5 C         141.1948  142.0419  166.6928 C.ar    1  UNK1        0.1351
      6 N         142.3589  141.1526  166.3706 N.ar    1  UNK1       -0.2305
      7 C         142.9226  141.1290  164.9806 C.ar    0  UNK0        0.1492
      8 C         142.3221  141.9948  163.9130 C.ar    0  UNK0        0.0276
      9 C         141.1579  142.8842  164.2354 C.ar    0  UNK0        0.0067
     10 C         140.5574  143.7500  163.1678 C.ar    0  UNK0        0.0370
     11 C         142.8857  141.9713  162.5232 C.ar    0  UNK0        0.0021
     12 C         144.0378  142.8629  162.1659 C.ar    0  UNK0        0.0001
     13 C         144.6014  142.8393  160.7759 C.ar    0  UNK0        0.0000
     14 C         144.0129  141.9242  159.7434 C.ar    0  UNK0        0.0000
     15 C         142.8608  141.0327  160.1007 C.ar    0  UNK0        0.0000
     16 C         142.2972  141.0562  161.4905 C.ar    0  UNK0        0.0001
     17 C         140.6312  142.0654  168.0827 C.2     1  UNK1        0.2637
     18 O         140.7944  143.2871  168.9376 O.2     1  UNK1       -0.2685
     19 N         139.9044  140.8673  168.6176 N.am    2  GLY2       -0.2972
     20 H         139.7973  140.0655  168.0565 H       2  GLY2        0.1499
     21 CA        139.3408  140.8908  170.0076 C.3     2  GLY2        0.1216
     22 C         140.2615  140.8483  171.1910 C.3     2  GLY2        0.1583
     23 O         140.6287  142.1173  171.9015 O.3     2  GLY2       -0.3802
     24 H         141.1517  142.6798  171.3092 H       2  GLY2        0.2105
     25 C         139.6819  146.3084  161.5200 C.3     0  UNK0        0.2525
     26 O         138.7928  145.5052  162.4224 O.3     0  UNK0       -0.4714
     27 C         144.0867  140.2397  164.6584 C.1     0  UNK0        0.1198
     28 N         145.2508  139.3503  164.3361 N.1     0  UNK0       -0.1893
@<TRIPOS>BOND
     1    25    26    1
     2    26     1    1
     3     1     2   ar
     4     2     3   ar
     5     3     4   ar
     6     4     5   ar
     7     5    17    1
     8    17    18    2
     9    17    19   am
    10    19    21    1
    11    21    22    1
    12    22    23    1
    13     5     6   ar
    14     6     7   ar
    15     7    27    1
    16    27    28    3
    17     7     8   ar
    18     8    11    1
    19    11    12   ar
    20    12    13   ar
    21    13    14   ar
    22    14    15   ar
    23    15    16   ar
    24     8     9   ar
    25     9    10   ar
    26    10     1   ar
    27     9     4   ar
    28    16    11   ar
    29    19    20    1
    30    23    24    1
@<TRIPOS>MOLECULE
*****
 28 30 0 0 0
SMALL
GASTEIGER

@<TRIPOS>ATOM
      1 C         138.6475  139.0837  166.9253 C.ar    0  UNK0        0.1387
      2 C         138.5293  138.4770  165.5586 C.ar    0  UNK0        0.0370
      3 C         139.4798  138.8849  164.4723 C.ar    0  UNK0        0.0048
      4 C         140.5485  139.8995  164.7526 C.ar    0  UNK0        0.0224
      5 C         141.4989  140.3073  163.6662 C.ar    1  UNK1        0.1351
      6 N         142.5676  141.3219  163.9465 N.ar    1  UNK1       -0.2305
      7 C         142.6858  141.9286  165.3132 C.ar    0  UNK0        0.1492
      8 C         141.7353  141.5208  166.3996 C.ar    0  UNK0        0.0276
      9 C         140.6666  140.5062  166.1193 C.ar    0  UNK0        0.0067
     10 C         139.7161  140.0983  167.2057 C.ar    0  UNK0        0.0370
     11 C         141.8535  142.1275  167.7663 C.ar    0  UNK0        0.0021
     12 C         143.0757  141.8716  168.5974 C.ar    0  UNK0        0.0001
     13 C         143.1938  142.4783  169.9642 C.ar    0  UNK0        0.0000
     14 C         142.0898  143.3409  170.4998 C.ar    0  UNK0        0.0000
     15 C         140.8676  143.5968  169.6687 C.ar    0  UNK0        0.0000
     16 C         140.7494  142.9902  168.3020 C.ar    0  UNK0        0.0001
     17 C         141.3808  139.7006  162.2995 C.2     1  UNK1        0.2637
     18 O         142.1222  138.4383  161.9726 O.2     1  UNK1       -0.2685
     19 N         140.5212  140.3563  161.2596 N.am    2  GLY2       -0.2972
     20 H         140.0346  141.1848  161.4741 H       2  GLY2        0.1499
     21 CA        140.4031  139.7495  159.8928 C.3     2  GLY2        0.1216
     22 C         139.6474  138.4676  159.7042 C.3     2  GLY2        0.1583
     23 O         139.2445  137.6520  160.8968 O.3     2  GLY2       -0.3802
     24 H         140.0379  137.3093  161.3371 H       2  GLY2        0.2105
     25 C         136.7171  137.5656  167.7731 C.3     0  UNK0        0.2525
     26 O         137.6970  138.6759  168.0117 O.3     0  UNK0       -0.4714
     27 C         143.7544  142.9432  165.5936 C.1     0  UNK0        0.1198
     28 N         144.8231  143.9579  165.8738 N.1     0  UNK0       -0.1893
@<TRIPOS>BOND
     1    25    26    1
     2    26     1    1
     3     1     2   ar
     4     2     3   ar
     5     3     4   ar
     6     4     5   ar
     7     5    17    1
     8    17    18    2
     9    17    19   am
    10    19    21    1
    11    21    22    1
    12    22    23    1
    13     5     6   ar
    14     6     7   ar
    15     7    27    1
    16    27    28    3
    17     7     8   ar
    18     8    11    1
    19    11    12   ar
    20    12    13   ar
    21    13    14   ar
    22    14    15   ar
    23    15    16   ar
    24     8     9   ar
    25     9    10   ar
    26    10     1   ar
    27     9     4   ar
    28    16    11   ar
    29    19    20    1
    30    23    24    1
@<TRIPOS>MOLECULE
*****
 28 30 0 0 0
SMALL
GASTEIGER

@<TRIPOS>ATOM
      1 C         142.4763  143.5054  164.3187 C.ar    0  UNK0        0.1387
      2 C         141.9138  143.7056  162.9426 C.ar    0  UNK0        0.0370
      3 C         140.6952  142.9441  162.5124 C.ar    0  UNK0        0.0048
      4 C         140.0390  141.9825  163.4582 C.ar    0  UNK0        0.0224
      5 C         138.8203  141.2210  163.0280 C.ar    1  UNK1        0.1351
      6 N         138.1641  140.2594  163.9738 N.ar    1  UNK1       -0.2305
      7 C         138.7266  140.0591  165.3499 C.ar    0  UNK0        0.1492
      8 C         139.9452  140.8206  165.7801 C.ar    0  UNK0        0.0276
      9 C         140.6014  141.7823  164.8342 C.ar    0  UNK0        0.0067
     10 C         141.8201  142.5437  165.2645 C.ar    0  UNK0        0.0370
     11 C         140.5077  140.6204  167.1562 C.ar    0  UNK0        0.0021
     12 C         139.9311  141.3726  168.3188 C.ar    0  UNK0        0.0001
     13 C         140.4937  141.1723  169.6949 C.ar    0  UNK0        0.0000
     14 C         141.6327  140.2199  169.9083 C.ar    0  UNK0        0.0000
     15 C         142.2093  139.4678  168.7456 C.ar    0  UNK0        0.0000
     16 C         141.6468  139.6680  167.3696 C.ar    0  UNK0        0.0001
     17 C         138.2579  141.4212  161.6519 C.2     1  UNK1        0.2637
     18 O         137.6044  142.7223  161.2908 O.2     1  UNK1       -0.2685
     19 N         138.3488  140.3205  160.6370 N.am    2  GLY2       -0.2972
     20 H         138.7777  139.4666  160.8741 H       2  GLY2        0.1499
     21 CA        137.7863  140.5207  159.2609 C.3     2  GLY2        0.1216
     22 C         138.5310  141.3538  158.2603 C.3     2  GLY2        0.1583
     23 O         138.4120  142.8488  158.2921 O.3     2  GLY2       -0.3802
     24 H         137.5028  143.1055  158.0725 H       2  GLY2        0.2105
     25 C         144.7535  143.5881  165.5665 C.3     0  UNK0        0.2525
     26 O         143.6949  144.2668  164.7489 O.3     0  UNK0       -0.4714
     27 C         138.0704  139.0975  166.2957 C.1     0  UNK0        0.1198
     28 N         137.4142  138.1358  167.2416 N.1     0  UNK0       -0.1893
@<TRIPOS>BOND
     1    25    26    1
     2    26     1    1
     3     1     2   ar
     4     2     3   ar
     5     3     4   ar
     6     4     5   ar
     7     5    17    1
     8    17    18    2
     9    17    19   am
    10    19    21    1
    11    21    22    1
    12    22    23    1
    13     5     6   ar
    14     6     7   ar
    15     7    27    1
    16    27    28    3
    17     7     8   ar
    18     8    11    1
    19    11    12   ar
    20    12    13   ar
    21    13    14   ar
    22    14    15   ar
    23    15    16   ar
    24     8     9   ar
    25     9    10   ar
    26    10     1   ar
    27     9     4   ar
    28    16    11   ar
    29    19    20    1
    30    23    24    1
@<TRIPOS>MOLECULE
*****
 28 30 0 0 0
SMALL
GASTEIGER

@<TRIPOS>ATOM
      1 C         139.0940  144.3090  163.4074 C.ar    0  UNK0        0.1387
      2 C         139.3395  144.8060  164.8011 C.ar    0  UNK0        0.0370
      3 C         139.8408  143.8645  165.8557 C.ar    0  UNK0        0.0048
      4 C         140.0965  142.4259  165.5166 C.ar    0  UNK0        0.0224
      5 C         140.5977  141.4844  166.5713 C.ar    1  UNK1        0.1351
      6 N         140.8534  140.0458  166.2321 N.ar    1  UNK1       -0.2305
      7 C         140.6079  139.5487  164.8383 C.ar    0  UNK0        0.1492
      8 C         140.1066  140.4902  163.7837 C.ar    0  UNK0        0.0276
      9 C         139.8509  141.9289  164.1229 C.ar    0  UNK0        0.0067
     10 C         139.3497  142.8704  163.0682 C.ar    0  UNK0        0.0370
     11 C         139.8611  139.9932  162.3899 C.ar    0  UNK0        0.0021
     12 C         138.5021  139.4909  162.0013 C.ar    0  UNK0        0.0001
     13 C         138.2566  138.9939  160.6074 C.ar    0  UNK0        0.0000
     14 C         139.3700  138.9991  159.6023 C.ar    0  UNK0        0.0000
     15 C         140.7289  139.5013  159.9910 C.ar    0  UNK0        0.0000
     16 C         140.9745  139.9984  161.3847 C.ar    0  UNK0        0.0001
     17 C         140.8433  141.9814  167.9650 C.2     1  UNK1        0.2637
     18 O         142.1292  142.6788  168.2969 O.2     1  UNK1       -0.2685
     19 N         139.8030  141.7811  169.0269 N.am    2  GLY2       -0.2972
     20 H         138.9590  141.3234  168.8091 H       2  GLY2        0.1499
     21 CA        140.0486  142.2782  170.4207 C.3     2  GLY2        0.1216
     22 C         141.0452  141.5830  171.3002 C.3     2  GLY2        0.1583
     23 O         140.6295  140.3877  172.1054 O.3     2  GLY2       -0.3802
     24 H         139.9827  140.6584  172.7756 H       2  GLY2        0.2105
     25 C         139.5349  146.2213  161.7048 C.3     0  UNK0        0.2525
     26 O         138.5927  145.2505  162.3527 O.3     0  UNK0       -0.4714
     27 C         140.8636  138.1101  164.4992 C.1     0  UNK0        0.1198
     28 N         141.1193  136.6714  164.1601 N.1     0  UNK0       -0.1893
@<TRIPOS>BOND
     1    25    26    1
     2    26     1    1
     3     1     2   ar
     4     2     3   ar
     5     3     4   ar
     6     4     5   ar
     7     5    17    1
     8    17    18    2
     9    17    19   am
    10    19    21    1
    11    21    22    1
    12    22    23    1
    13     5     6   ar
    14     6     7   ar
    15     7    27    1
    16    27    28    3
    17     7     8   ar
    18     8    11    1
    19    11    12   ar
    20    12    13   ar
    21    13    14   ar
    22    14    15   ar
    23    15    16   ar
    24     8     9   ar
    25     9    10   ar
    26    10     1   ar
    27     9     4   ar
    28    16    11   ar
    29    19    20    1
    30    23    24    1
@<TRIPOS>MOLECULE
*****
 28 30 0 0 0
SMALL
GASTEIGER

@<TRIPOS>ATOM
      1 C         138.8650  138.5168  163.7943 C.ar    0  UNK0        0.1387
      2 C         139.0806  137.5630  162.6569 C.ar    0  UNK0        0.0370
      3 C         139.4041  138.0874  161.2893 C.ar    0  UNK0        0.0048
      4 C         139.5119  139.5657  161.0591 C.ar    0  UNK0        0.0224
      5 C         139.8354  140.0902  159.6915 C.ar    1  UNK1        0.1351
      6 N         139.9432  141.5685  159.4613 N.ar    1  UNK1       -0.2305
      7 C         139.7276  142.5223  160.5988 C.ar    0  UNK0        0.1492
      8 C         139.4041  141.9979  161.9664 C.ar    0  UNK0        0.0276
      9 C         139.2963  140.5195  162.1965 C.ar    0  UNK0        0.0067
     10 C         138.9728  139.9950  163.5641 C.ar    0  UNK0        0.0370
     11 C         139.1885  142.9517  163.1038 C.ar    0  UNK0        0.0021
     12 C         137.8033  143.4208  163.4369 C.ar    0  UNK0        0.0001
     13 C         137.5877  144.3746  164.5743 C.ar    0  UNK0        0.0000
     14 C         138.7573  144.8593  165.3787 C.ar    0  UNK0        0.0000
     15 C         140.1426  144.3902  165.0456 C.ar    0  UNK0        0.0000
     16 C         140.3582  143.4364  163.9082 C.ar    0  UNK0        0.0001
     17 C         140.0510  139.1364  158.5541 C.2     1  UNK1        0.2637
     18 O         138.9289  138.8346  157.6054 O.2     1  UNK1       -0.2685
     19 N         141.3886  138.4844  158.3654 N.am    2  GLY2       -0.2972
     20 H         142.1251  138.6825  158.9880 H       2  GLY2        0.1499
     21 CA        141.6042  137.5305  157.2279 C.3     2  GLY2        0.1216
     22 C         142.8789  136.7448  157.1393 C.3     2  GLY2        0.1583
     23 O         143.9533  137.1642  156.1803 O.3     2  GLY2       -0.3802
     24 H         143.6340  137.0585  155.2705 H       2  GLY2        0.2105
     25 C         138.1322  138.9392  166.2508 C.3     0  UNK0        0.2525
     26 O         138.5415  137.9923  165.1619 O.3     0  UNK0       -0.4714
     27 C         139.8355  144.0006  160.3686 C.1     0  UNK0        0.1198
     28 N         139.9433  145.4790  160.1384 N.1     0  UNK0       -0.1893
@<TRIPOS>BOND
     1    25    26    1
     2    26     1    1
     3     1     2   ar
     4     2     3   ar
     5     3     4   ar
     6     4     5   ar
     7     5    17    1
     8    17    18    2
     9    17    19   am
    10    19    21    1
    11    21    22    1
    12    22    23    1
    13     5     6   ar
    14     6     7   ar
    15     7    27    1
    16    27    28    3
    17     7     8   ar
    18     8    11    1
    19    11    12   ar
    20    12    13   ar
    21    13    14   ar
    22    14    15   ar
    23    15    16   ar
    24     8     9   ar
    25     9    10   ar
    26    10     1   ar
    27     9     4   ar
    28    16    11   ar
    29    19    20    1
    30    23    24    1
@<TRIPOS>MOLECULE
*****
 28 30 0 0 0
SMALL
GASTEIGER

@<TRIPOS>ATOM
      1 C         139.4639  138.1495  165.2201 C.ar    0  UNK0        0.1387
      2 C         139.8471  137.5594  163.8954 C.ar    0  UNK0        0.0370
      3 C         141.0068  138.1244  163.1299 C.ar    0  UNK0        0.0048
      4 C         141.7833  139.2795  163.6892 C.ar    0  UNK0        0.0224
      5 C         142.9429  139.8445  162.9238 C.ar    1  UNK1        0.1351
      6 N         143.7194  140.9995  163.4830 N.ar    1  UNK1       -0.2305
      7 C         143.3362  141.5897  164.8078 C.ar    0  UNK0        0.1492
      8 C         142.1766  141.0247  165.5733 C.ar    0  UNK0        0.0276
      9 C         141.4001  139.8696  165.0139 C.ar    0  UNK0        0.0067
     10 C         140.2404  139.3046  165.7794 C.ar    0  UNK0        0.0370
     11 C         141.7934  141.6148  166.8980 C.ar    0  UNK0        0.0021
     12 C         142.5111  141.1891  168.1444 C.ar    0  UNK0        0.0001
     13 C         142.1278  141.7792  169.4692 C.ar    0  UNK0        0.0000
     14 C         141.0269  142.7950  169.5475 C.ar    0  UNK0        0.0000
     15 C         140.3092  143.2207  168.3010 C.ar    0  UNK0        0.0000
     16 C         140.6924  142.6306  166.9763 C.ar    0  UNK0        0.0001
     17 C         143.3261  139.2544  161.5990 C.2     1  UNK1        0.2637
     18 O         144.1610  138.0093  161.5459 O.2     1  UNK1       -0.2685
     19 N         142.8745  139.9094  160.3274 N.am    2  GLY2       -0.2972
     20 H         142.3266  140.7266  160.3623 H       2  GLY2        0.1499
     21 CA        143.2578  139.3192  159.0026 C.3     2  GLY2        0.1216
     22 C         142.5262  138.1204  158.4758 C.3     2  GLY2        0.1583
     23 O         142.8379  137.5935  157.1065 O.3     2  GLY2       -0.3802
     24 H         142.5764  138.2487  156.4407 H       2  GLY2        0.2105
     25 C         137.6074  138.4212  167.0172 C.3     0  UNK0        0.2525
     26 O         138.3042  137.5845  165.9855 O.3     0  UNK0       -0.4714
     27 C         144.1127  142.7448  165.3671 C.1     0  UNK0        0.1198
     28 N         144.8893  143.8999  165.9264 N.1     0  UNK0       -0.1893
@<TRIPOS>BOND
     1    25    26    1
     2    26     1    1
     3     1     2   ar
     4     2     3   ar
     5     3     4   ar
     6     4     5   ar
     7     5    17    1
     8    17    18    2
     9    17    19   am
    10    19    21    1
    11    21    22    1
    12    22    23    1
    13     5     6   ar
    14     6     7   ar
    15     7    27    1
    16    27    28    3
    17     7     8   ar
    18     8    11    1
    19    11    12   ar
    20    12    13   ar
    21    13    14   ar
    22    14    15   ar
    23    15    16   ar
    24     8     9   ar
    25     9    10   ar
    26    10     1   ar
    27     9     4   ar
    28    16    11   ar
    29    19    20    1
    30    23    24    1
@<TRIPOS>MOLECULE
*****
 28 30 0 0 0
SMALL
GASTEIGER

@<TRIPOS>ATOM
      1 C         139.4462  138.2938  164.1762 C.ar    0  UNK0        0.1387
      2 C         140.1727  137.3317  163.2838 C.ar    0  UNK0        0.0370
      3 C         140.9548  137.8419  162.1098 C.ar    0  UNK0        0.0048
      4 C         141.0102  139.3142  161.8283 C.ar    0  UNK0        0.0224
      5 C         141.7923  139.8243  160.6543 C.ar    1  UNK1        0.1351
      6 N         141.8478  141.2966  160.3728 N.ar    1  UNK1       -0.2305
      7 C         141.1212  142.2588  161.2652 C.ar    0  UNK0        0.1492
      8 C         140.3392  141.7486  162.4392 C.ar    0  UNK0        0.0276
      9 C         140.2837  140.2763  162.7207 C.ar    0  UNK0        0.0067
     10 C         139.5017  139.7661  163.8946 C.ar    0  UNK0        0.0370
     11 C         139.6126  142.7107  163.3316 C.ar    0  UNK0        0.0021
     12 C         140.2822  143.2425  164.5640 C.ar    0  UNK0        0.0001
     13 C         139.5556  144.2046  165.4565 C.ar    0  UNK0        0.0000
     14 C         138.1594  144.6349  165.1165 C.ar    0  UNK0        0.0000
     15 C         137.4899  144.1032  163.8840 C.ar    0  UNK0        0.0000
     16 C         138.2164  143.1411  162.9916 C.ar    0  UNK0        0.0001
     17 C         142.5188  138.8622  159.7619 C.2     1  UNK1        0.2637
     18 O         143.9334  138.4722  160.0734 O.2     1  UNK1       -0.2685
     19 N         141.8309  138.2901  158.5580 N.am    2  GLY2       -0.2972
     20 H         140.9025  138.5461  158.3536 H       2  GLY2        0.1499
     21 CA        142.5575  137.3280  157.6656 C.3     2  GLY2        0.1216
     22 C         141.8251  136.6367  156.5539 C.3     2  GLY2        0.1583
     23 O         140.3261  136.6676  156.5103 O.3     2  GLY2       -0.3802
     24 H         139.9704  136.1778  157.2682 H       2  GLY2        0.2105
     25 C         138.1819  138.7381  166.4019 C.3     0  UNK0        0.2525
     26 O         138.6642  137.7836  165.3501 O.3     0  UNK0       -0.4714
     27 C         141.1767  143.7310  160.9837 C.1     0  UNK0        0.1198
     28 N         141.2322  145.2034  160.7021 N.1     0  UNK0       -0.1893
@<TRIPOS>BOND
     1    25    26    1
     2    26     1    1
     3     1     2   ar
     4     2     3   ar
     5     3     4   ar
     6     4     5   ar
     7     5    17    1
     8    17    18    2
     9    17    19   am
    10    19    21    1
    11    21    22    1
    12    22    23    1
    13     5     6   ar
    14     6     7   ar
    15     7    27    1
    16    27    28    3
    17     7     8   ar
    18     8    11    1
    19    11    12   ar
    20    12    13   ar
    21    13    14   ar
    22    14    15   ar
    23    15    16   ar
    24     8     9   ar
    25     9    10   ar
    26    10     1   ar
    27     9     4   ar
    28    16    11   ar
    29    19    20    1
    30    23    24    1
