@<TRIPOS>MOLECULE
*****
 35 40 0 0 0
SMALL
GASTEIGER

@<TRIPOS>ATOM
      1 C         140.2402  145.3051  158.5319 C.3     1  UNL1        0.0646
      2 C         139.9007  143.9335  158.0285 C.3     1  UNL1        0.0759
      3 C         139.8734  140.4390  160.8637 C.3     1  UNL1        0.0464
      4 C         138.6231  141.2391  160.6473 C.3     1  UNL1        0.0234
      5 C         138.6323  142.4039  159.7023 C.3     1  UNL1        0.0725
      6 N         139.8916  142.7687  158.9735 N.3     1  UNL1       -0.2725
      7 C         141.1418  141.9686  159.1899 C.3     1  UNL1        0.0725
      8 C         141.1326  140.8038  160.1349 C.3     1  UNL1        0.0234
      9 F         137.8333  138.3450  167.3510 F       1  UNL1       -0.2041
     10 C         138.3165  138.6518  165.9645 C.ar    1  UNL1        0.1433
     11 C         138.1052  140.0176  165.3816 C.ar    1  UNL1        0.0299
     12 C         138.5884  140.3244  163.9951 C.ar    1  UNL1        0.0067
     13 C         139.2829  139.2653  163.1914 C.ar    1  UNL1        0.0540
     14 C         139.8642  139.2742  161.8087 C.ar    1  UNL1        0.1003
     15 N         140.4349  137.9138  161.5370 N.ar    1  UNL1       -0.0814
     16 O         140.2062  137.0641  162.7517 O.2     1  UNL1       -0.3536
     17 C         139.4942  137.8994  163.7743 C.ar    1  UNL1        0.1787
     18 C         139.0110  137.5927  165.1608 C.ar    1  UNL1        0.0698
     19 C         140.6473  145.4995  159.9624 C.3     1  UNL1        0.2068
     20 O         139.6145  145.4519  161.0492 O.3     1  UNL1       -0.4754
     21 C         139.8987  144.7107  162.3220 C.ar    1  UNL1        0.1386
     22 C         139.0382  144.9368  163.5296 C.ar    1  UNL1        0.0371
     23 C         139.3224  144.1956  164.8024 C.ar    1  UNL1        0.0078
     24 C         140.4670  143.2284  164.8674 C.ar    1  UNL1        0.0538
     25 C         141.3276  143.0023  163.6597 C.ar    1  UNL1        0.0078
     26 C         141.0434  143.7435  162.3870 C.ar    1  UNL1        0.0371
     27 C         140.7512  142.4872  166.1401 C.ar    1  UNL1        0.2297
     28 N         141.4930  141.1886  166.2575 N.ar    1  UNL1       -0.2083
     29 C         141.5438  140.8133  167.7088 C.ar    1  UNL1        0.1189
     30 C         142.1451  139.6381  168.4212 C.ar    1  UNL1        0.0223
     31 C         142.0360  139.5295  169.9133 C.ar    1  UNL1        0.0018
     32 C         141.3256  140.5959  170.6930 C.ar    1  UNL1        0.0032
     33 C         140.7243  141.7711  169.9806 C.ar    1  UNL1        0.0391
     34 C         140.8334  141.8797  168.4885 C.ar    1  UNL1        0.1647
     35 O         140.3436  142.9142  167.5191 O.2     1  UNL1       -0.4346
@<TRIPOS>BOND
     1     9    10    1
     2    10    11   ar
     3    11    12   ar
     4    12    13   ar
     5    13    14   ar
     6    14     3    1
     7     3     4    1
     8     4     5    1
     9     5     6    1
    10     6     2    1
    11     2     1    1
    12     1    19    1
    13    19    20    1
    14    20    21    1
    15    21    22   ar
    16    22    23   ar
    17    23    24   ar
    18    24    27    1
    19    27    28   ar
    20    28    29   ar
    21    29    30   ar
    22    30    31   ar
    23    31    32   ar
    24    32    33   ar
    25    33    34   ar
    26    34    35   ar
    27    24    25   ar
    28    25    26   ar
    29     6     7    1
    30     7     8    1
    31    14    15   ar
    32    15    16   ar
    33    16    17   ar
    34    17    18   ar
    35    18    10   ar
    36    17    13   ar
    37     8     3    1
    38    26    21   ar
    39    35    27   ar
    40    34    29   ar
@<TRIPOS>MOLECULE
*****
 35 40 0 0 0
SMALL
GASTEIGER

@<TRIPOS>ATOM
      1 C         140.3642  141.0883  170.3260 C.3     1  UNL1        0.0646
      2 C         139.5478  140.0435  169.6246 C.3     1  UNL1        0.0759
      3 C         138.6082  140.4866  165.2461 C.3     1  UNL1        0.0464
      4 C         139.4014  141.5449  165.9538 C.3     1  UNL1        0.0234
      5 C         139.7146  141.3972  167.4133 C.3     1  UNL1        0.0725
      6 N         139.2346  140.1912  168.1651 N.3     1  UNL1       -0.2725
      7 C         138.4414  139.1330  167.4574 C.3     1  UNL1        0.0725
      8 C         138.1282  139.2807  165.9979 C.3     1  UNL1        0.0234
      9 F         140.0240  137.8494  158.7907 F       1  UNL1       -0.2041
     10 C         139.6364  138.5002  160.0854 C.ar    1  UNL1        0.1433
     11 C         140.2207  138.0085  161.3764 C.ar    1  UNL1        0.0299
     12 C         139.8330  138.6592  162.6711 C.ar    1  UNL1        0.0067
     13 C         138.8611  139.8017  162.6748 C.ar    1  UNL1        0.0540
     14 C         138.2950  140.6344  163.7866 C.ar    1  UNL1        0.1003
     15 N         137.3609  141.6407  163.1828 N.ar    1  UNL1       -0.0814
     16 O         137.3495  141.4300  161.6977 O.2     1  UNL1       -0.3536
     17 C         138.2767  140.2933  161.3838 C.ar    1  UNL1        0.1787
     18 C         138.6644  139.6426  160.0891 C.ar    1  UNL1        0.0698
     19 C         141.6951  140.7284  170.9169 C.3     1  UNL1        0.2068
     20 O         142.9534  140.9804  170.1402 O.3     1  UNL1       -0.4754
     21 C         142.9488  140.8598  168.6451 C.ar    1  UNL1        0.1386
     22 C         143.1289  142.0815  167.7936 C.ar    1  UNL1        0.0371
     23 C         143.1243  141.9610  166.2985 C.ar    1  UNL1        0.0078
     24 C         142.9395  140.6187  165.6549 C.ar    1  UNL1        0.0538
     25 C         142.7593  139.3970  166.5063 C.ar    1  UNL1        0.0078
     26 C         142.7640  139.5176  168.0015 C.ar    1  UNL1        0.0371
     27 C         142.9349  140.4982  164.1597 C.ar    1  UNL1        0.2297
     28 N         143.6446  139.4479  163.3576 N.ar    1  UNL1       -0.2083
     29 C         143.3681  139.7073  161.9063 C.ar    1  UNL1        0.1189
     30 C         143.8044  138.9976  160.6590 C.ar    1  UNL1        0.0223
     31 C         143.3600  139.4985  159.3167 C.ar    1  UNL1        0.0018
     32 C         142.4794  140.7090  159.2218 C.ar    1  UNL1        0.0032
     33 C         142.0431  141.4187  160.4692 C.ar    1  UNL1        0.0391
     34 C         142.4874  140.9178  161.8114 C.ar    1  UNL1        0.1647
     35 O         142.2197  141.4066  163.2041 O.2     1  UNL1       -0.4346
@<TRIPOS>BOND
     1     9    10    1
     2    10    11   ar
     3    11    12   ar
     4    12    13   ar
     5    13    14   ar
     6    14     3    1
     7     3     4    1
     8     4     5    1
     9     5     6    1
    10     6     2    1
    11     2     1    1
    12     1    19    1
    13    19    20    1
    14    20    21    1
    15    21    22   ar
    16    22    23   ar
    17    23    24   ar
    18    24    27    1
    19    27    28   ar
    20    28    29   ar
    21    29    30   ar
    22    30    31   ar
    23    31    32   ar
    24    32    33   ar
    25    33    34   ar
    26    34    35   ar
    27    24    25   ar
    28    25    26   ar
    29     6     7    1
    30     7     8    1
    31    14    15   ar
    32    15    16   ar
    33    16    17   ar
    34    17    18   ar
    35    18    10   ar
    36    17    13   ar
    37     8     3    1
    38    26    21   ar
    39    35    27   ar
    40    34    29   ar
@<TRIPOS>MOLECULE
*****
 35 40 0 0 0
SMALL
GASTEIGER

@<TRIPOS>ATOM
      1 C         141.4598  139.5234  170.0738 C.3     1  UNL1        0.0646
      2 C         142.6221  140.3712  169.6494 C.3     1  UNL1        0.0759
      3 C         143.3326  141.1922  165.2823 C.3     1  UNL1        0.0464
      4 C         143.3907  142.3146  166.2756 C.3     1  UNL1        0.0234
      5 C         143.1539  142.0410  167.7313 C.3     1  UNL1        0.0725
      6 N         142.8589  140.6449  168.1937 N.3     1  UNL1       -0.2725
      7 C         142.8008  139.5224  167.2004 C.3     1  UNL1        0.0725
      8 C         143.0377  139.7961  165.7447 C.3     1  UNL1        0.0234
      9 F         141.4183  145.3812  159.8583 F       1  UNL1       -0.2041
     10 C         141.9119  144.4308  160.9086 C.ar    1  UNL1        0.1433
     11 C         141.3774  144.5155  162.3076 C.ar    1  UNL1        0.0299
     12 C         141.8710  143.5651  163.3578 C.ar    1  UNL1        0.0067
     13 C         142.8990  142.5299  163.0091 C.ar    1  UNL1        0.0540
     14 C         143.5694  141.4658  163.8266 C.ar    1  UNL1        0.1003
     15 N         144.5181  140.7234  162.9328 N.ar    1  UNL1       -0.0814
     16 O         144.4341  141.3287  161.5630 O.2     1  UNL1       -0.3536
     17 C         143.4334  142.4452  161.6101 C.ar    1  UNL1        0.1787
     18 C         142.9399  143.3956  160.5599 C.ar    1  UNL1        0.0698
     19 C         140.0822  140.1142  170.1321 C.3     1  UNL1        0.2068
     20 O         139.0241  139.6456  169.1777 O.3     1  UNL1       -0.4754
     21 C         139.1529  139.9388  167.7123 C.ar    1  UNL1        0.1386
     22 C         139.6400  141.2823  167.2562 C.ar    1  UNL1        0.0371
     23 C         139.7687  141.5755  165.7908 C.ar    1  UNL1        0.0078
     24 C         139.4103  140.5253  164.7815 C.ar    1  UNL1        0.0538
     25 C         138.9232  139.1819  165.2376 C.ar    1  UNL1        0.0078
     26 C         138.7945  138.8887  166.7030 C.ar    1  UNL1        0.0371
     27 C         139.5390  140.8186  163.3161 C.ar    1  UNL1        0.2297
     28 N         140.4265  140.0954  162.3468 N.ar    1  UNL1       -0.2083
     29 C         140.2388  140.7163  160.9943 C.ar    1  UNL1        0.1189
     30 C         140.8520  140.4168  159.6586 C.ar    1  UNL1        0.0223
     31 C         140.4617  141.2242  158.4562 C.ar    1  UNL1        0.0018
     32 C         139.4583  142.3311  158.5895 C.ar    1  UNL1        0.0032
     33 C         138.8451  142.6306  159.9253 C.ar    1  UNL1        0.0391
     34 C         139.2354  141.8232  161.1277 C.ar    1  UNL1        0.1647
     35 O         138.8029  141.8864  162.5626 O.2     1  UNL1       -0.4346
@<TRIPOS>BOND
     1     9    10    1
     2    10    11   ar
     3    11    12   ar
     4    12    13   ar
     5    13    14   ar
     6    14     3    1
     7     3     4    1
     8     4     5    1
     9     5     6    1
    10     6     2    1
    11     2     1    1
    12     1    19    1
    13    19    20    1
    14    20    21    1
    15    21    22   ar
    16    22    23   ar
    17    23    24   ar
    18    24    27    1
    19    27    28   ar
    20    28    29   ar
    21    29    30   ar
    22    30    31   ar
    23    31    32   ar
    24    32    33   ar
    25    33    34   ar
    26    34    35   ar
    27    24    25   ar
    28    25    26   ar
    29     6     7    1
    30     7     8    1
    31    14    15   ar
    32    15    16   ar
    33    16    17   ar
    34    17    18   ar
    35    18    10   ar
    36    17    13   ar
    37     8     3    1
    38    26    21   ar
    39    35    27   ar
    40    34    29   ar
@<TRIPOS>MOLECULE
*****
 35 40 0 0 0
SMALL
GASTEIGER

@<TRIPOS>ATOM
      1 C         141.4017  145.4172  159.0103 C.3     1  UNL1        0.0646
      2 C         141.8347  144.0028  158.7612 C.3     1  UNL1        0.0759
      3 C         141.5291  140.9440  162.0477 C.3     1  UNL1        0.0464
      4 C         140.2995  141.3666  161.2997 C.3     1  UNL1        0.0234
      5 C         140.4014  142.3862  160.2042 C.3     1  UNL1        0.0725
      6 N         141.7329  142.9832  159.8567 N.3     1  UNL1       -0.2725
      7 C         142.9625  142.5606  160.6047 C.3     1  UNL1        0.0725
      8 C         142.8606  141.5411  161.7001 C.3     1  UNL1        0.0234
      9 F         137.2675  138.4522  167.1722 F       1  UNL1       -0.2041
     10 C         138.2633  138.8773  166.1341 C.ar    1  UNL1        0.1433
     11 C         137.9353  140.0005  165.1957 C.ar    1  UNL1        0.0299
     12 C         138.9311  140.4256  164.1576 C.ar    1  UNL1        0.0067
     13 C         140.2549  139.7274  164.0579 C.ar    1  UNL1        0.0540
     14 C         141.4273  139.9245  163.1432 C.ar    1  UNL1        0.1003
     15 N         142.4798  138.9230  163.5162 N.ar    1  UNL1       -0.0814
     16 O         141.9580  138.1069  164.6615 O.2     1  UNL1       -0.3536
     17 C         140.5829  138.6041  164.9963 C.ar    1  UNL1        0.1787
     18 C         139.5871  138.1791  166.0344 C.ar    1  UNL1        0.0698
     19 C         140.1985  145.6942  159.8621 C.3     1  UNL1        0.2068
     20 O         140.3693  146.2677  161.2376 O.3     1  UNL1       -0.4754
     21 C         140.5162  145.3541  162.4182 C.ar    1  UNL1        0.1386
     22 C         139.2981  144.7734  163.0732 C.ar    1  UNL1        0.0371
     23 C         139.4449  143.8599  164.2538 C.ar    1  UNL1        0.0078
     24 C         140.8099  143.5270  164.7793 C.ar    1  UNL1        0.0538
     25 C         142.0280  144.1078  164.1243 C.ar    1  UNL1        0.0078
     26 C         141.8811  145.0213  162.9437 C.ar    1  UNL1        0.0371
     27 C         140.9568  142.6135  165.9599 C.ar    1  UNL1        0.2297
     28 N         142.1709  141.8010  166.3005 N.ar    1  UNL1       -0.2083
     29 C         141.8799  141.0374  167.5583 C.ar    1  UNL1        0.1189
     30 C         142.7041  140.0760  168.3623 C.ar    1  UNL1        0.0223
     31 C         142.1343  139.4551  169.6031 C.ar    1  UNL1        0.0018
     32 C         140.7403  139.7955  170.0400 C.ar    1  UNL1        0.0032
     33 C         139.9161  140.7569  169.2361 C.ar    1  UNL1        0.0391
     34 C         140.4859  141.3778  167.9952 C.ar    1  UNL1        0.1647
     35 O         139.9154  142.3519  167.0074 O.2     1  UNL1       -0.4346
@<TRIPOS>BOND
     1     9    10    1
     2    10    11   ar
     3    11    12   ar
     4    12    13   ar
     5    13    14   ar
     6    14     3    1
     7     3     4    1
     8     4     5    1
     9     5     6    1
    10     6     2    1
    11     2     1    1
    12     1    19    1
    13    19    20    1
    14    20    21    1
    15    21    22   ar
    16    22    23   ar
    17    23    24   ar
    18    24    27    1
    19    27    28   ar
    20    28    29   ar
    21    29    30   ar
    22    30    31   ar
    23    31    32   ar
    24    32    33   ar
    25    33    34   ar
    26    34    35   ar
    27    24    25   ar
    28    25    26   ar
    29     6     7    1
    30     7     8    1
    31    14    15   ar
    32    15    16   ar
    33    16    17   ar
    34    17    18   ar
    35    18    10   ar
    36    17    13   ar
    37     8     3    1
    38    26    21   ar
    39    35    27   ar
    40    34    29   ar
@<TRIPOS>MOLECULE
*****
 35 40 0 0 0
SMALL
GASTEIGER

@<TRIPOS>ATOM
      1 C         141.2113  138.1249  156.6375 C.3     1  UNL1        0.0646
      2 C         142.5277  137.7520  157.2522 C.3     1  UNL1        0.0759
      3 C         143.7755  139.5716  161.1742 C.3     1  UNL1        0.0464
      4 C         143.8510  140.3815  159.9139 C.3     1  UNL1        0.0234
      5 C         143.4351  139.7750  158.6066 C.3     1  UNL1        0.0725
      6 N         142.9437  138.3586  158.5595 N.3     1  UNL1       -0.2725
      7 C         142.8682  137.5487  159.8198 C.3     1  UNL1        0.0725
      8 C         143.2841  138.1552  161.1271 C.3     1  UNL1        0.0234
      9 F         144.0023  145.6627  164.8457 F       1  UNL1       -0.2041
     10 C         144.0165  144.3149  164.1875 C.ar    1  UNL1        0.1433
     11 C         143.4717  144.1523  162.7995 C.ar    1  UNL1        0.0299
     12 C         143.4859  142.8045  162.1413 C.ar    1  UNL1        0.0067
     13 C         144.0450  141.6193  162.8711 C.ar    1  UNL1        0.0540
     14 C         144.1914  140.1782  162.4816 C.ar    1  UNL1        0.1003
     15 N         144.8268  139.4501  163.6289 N.ar    1  UNL1       -0.0814
     16 O         145.0730  140.4412  164.7275 O.2     1  UNL1       -0.3536
     17 C         144.5898  141.7819  164.2591 C.ar    1  UNL1        0.1787
     18 C         144.5756  143.1297  164.9173 C.ar    1  UNL1        0.0698
     19 C         139.9343  137.8480  157.3741 C.3     1  UNL1        0.2068
     20 O         139.2528  138.9476  158.1334 O.3     1  UNL1       -0.4754
     21 C         139.5044  139.1118  159.6030 C.ar    1  UNL1        0.1386
     22 C         139.1858  137.9915  160.5482 C.ar    1  UNL1        0.0371
     23 C         139.4373  138.1557  162.0178 C.ar    1  UNL1        0.0078
     24 C         140.0075  139.4402  162.5421 C.ar    1  UNL1        0.0538
     25 C         140.3261  140.5605  161.5969 C.ar    1  UNL1        0.0078
     26 C         140.0746  140.3963  160.1273 C.ar    1  UNL1        0.0371
     27 C         140.2591  139.6044  164.0117 C.ar    1  UNL1        0.2297
     28 N         139.2159  139.6108  165.0896 N.ar    1  UNL1       -0.2083
     29 C         139.9100  139.8015  166.4055 C.ar    1  UNL1        0.1189
     30 C         139.3918  139.8880  167.8105 C.ar    1  UNL1        0.0223
     31 C         140.3458  140.0859  168.9509 C.ar    1  UNL1        0.0018
     32 C         141.8181  140.1973  168.6865 C.ar    1  UNL1        0.0032
     33 C         142.3363  140.1108  167.2815 C.ar    1  UNL1        0.0391
     34 C         141.3823  139.9129  166.1410 C.ar    1  UNL1        0.1647
     35 O         141.5980  139.7911  164.6617 O.2     1  UNL1       -0.4346
@<TRIPOS>BOND
     1     9    10    1
     2    10    11   ar
     3    11    12   ar
     4    12    13   ar
     5    13    14   ar
     6    14     3    1
     7     3     4    1
     8     4     5    1
     9     5     6    1
    10     6     2    1
    11     2     1    1
    12     1    19    1
    13    19    20    1
    14    20    21    1
    15    21    22   ar
    16    22    23   ar
    17    23    24   ar
    18    24    27    1
    19    27    28   ar
    20    28    29   ar
    21    29    30   ar
    22    30    31   ar
    23    31    32   ar
    24    32    33   ar
    25    33    34   ar
    26    34    35   ar
    27    24    25   ar
    28    25    26   ar
    29     6     7    1
    30     7     8    1
    31    14    15   ar
    32    15    16   ar
    33    16    17   ar
    34    17    18   ar
    35    18    10   ar
    36    17    13   ar
    37     8     3    1
    38    26    21   ar
    39    35    27   ar
    40    34    29   ar
@<TRIPOS>MOLECULE
*****
 35 40 0 0 0
SMALL
GASTEIGER

@<TRIPOS>ATOM
      1 C         142.5716  144.7519  157.6071 C.3     1  UNL1        0.0646
      2 C         142.8558  143.3041  157.3365 C.3     1  UNL1        0.0759
      3 C         141.9945  140.2139  160.4923 C.3     1  UNL1        0.0464
      4 C         141.4627  140.0339  159.1014 C.3     1  UNL1        0.0234
      5 C         141.7498  141.0639  158.0495 C.3     1  UNL1        0.0725
      6 N         142.5687  142.2740  158.3884 N.3     1  UNL1       -0.2725
      7 C         143.1005  142.4541  159.7794 C.3     1  UNL1        0.0725
      8 C         142.8134  141.4241  160.8313 C.3     1  UNL1        0.0234
      9 F         142.8555  138.6763  167.3863 F       1  UNL1       -0.2041
     10 C         142.6039  138.8729  165.9207 C.ar    1  UNL1        0.1433
     11 C         143.0916  140.1152  165.2360 C.ar    1  UNL1        0.0299
     12 C         142.8401  140.3119  163.7704 C.ar    1  UNL1        0.0067
     13 C         142.1008  139.2662  162.9894 C.ar    1  UNL1        0.0540
     14 C         141.7074  139.1839  161.5443 C.ar    1  UNL1        0.1003
     15 N         140.9765  137.8907  161.3357 N.ar    1  UNL1       -0.0814
     16 O         140.9182  137.1737  162.6520 O.2     1  UNL1       -0.3536
     17 C         141.6131  138.0239  163.6740 C.ar    1  UNL1        0.1787
     18 C         141.8646  137.8273  165.1397 C.ar    1  UNL1        0.0698
     19 C         141.2043  145.3097  157.3439 C.3     1  UNL1        0.2068
     20 O         140.3552  145.7840  158.4859 O.3     1  UNL1       -0.4754
     21 C         140.1730  144.9164  159.6958 C.ar    1  UNL1        0.1386
     22 C         139.5050  143.5796  159.5664 C.ar    1  UNL1        0.0371
     23 C         139.3228  142.7120  160.7764 C.ar    1  UNL1        0.0078
     24 C         139.8086  143.1812  162.1157 C.ar    1  UNL1        0.0538
     25 C         140.4767  144.5180  162.2452 C.ar    1  UNL1        0.0078
     26 C         140.6588  145.3856  161.0352 C.ar    1  UNL1        0.0371
     27 C         139.6265  142.3136  163.3257 C.ar    1  UNL1        0.2297
     28 N         138.8672  141.0209  163.3776 N.ar    1  UNL1       -0.2083
     29 C         138.9430  140.4948  164.7802 C.ar    1  UNL1        0.1189
     30 C         138.3822  139.2597  165.4206 C.ar    1  UNL1        0.0223
     31 C         138.6275  138.9921  166.8760 C.ar    1  UNL1        0.0018
     32 C         139.4336  139.9595  167.6911 C.ar    1  UNL1        0.0032
     33 C         139.9944  141.1946  167.0507 C.ar    1  UNL1        0.0391
     34 C         139.7491  141.4622  165.5953 C.ar    1  UNL1        0.1647
     35 O         140.1715  142.5863  164.6964 O.2     1  UNL1       -0.4346
@<TRIPOS>BOND
     1     9    10    1
     2    10    11   ar
     3    11    12   ar
     4    12    13   ar
     5    13    14   ar
     6    14     3    1
     7     3     4    1
     8     4     5    1
     9     5     6    1
    10     6     2    1
    11     2     1    1
    12     1    19    1
    13    19    20    1
    14    20    21    1
    15    21    22   ar
    16    22    23   ar
    17    23    24   ar
    18    24    27    1
    19    27    28   ar
    20    28    29   ar
    21    29    30   ar
    22    30    31   ar
    23    31    32   ar
    24    32    33   ar
    25    33    34   ar
    26    34    35   ar
    27    24    25   ar
    28    25    26   ar
    29     6     7    1
    30     7     8    1
    31    14    15   ar
    32    15    16   ar
    33    16    17   ar
    34    17    18   ar
    35    18    10   ar
    36    17    13   ar
    37     8     3    1
    38    26    21   ar
    39    35    27   ar
    40    34    29   ar
@<TRIPOS>MOLECULE
*****
 35 40 0 0 0
SMALL
GASTEIGER

@<TRIPOS>ATOM
      1 C         142.6678  140.1691  158.3832 C.3     1  UNL1        0.0646
      2 C         142.5834  138.8814  159.1479 C.3     1  UNL1        0.0759
      3 C         142.6278  138.9295  163.6474 C.3     1  UNL1        0.0464
      4 C         141.3223  138.8756  162.9108 C.3     1  UNL1        0.0234
      5 C         141.3075  138.8595  161.4109 C.3     1  UNL1        0.0725
      6 N         142.5982  138.8974  160.6477 N.3     1  UNL1       -0.2725
      7 C         143.9037  138.9513  161.3843 C.3     1  UNL1        0.0725
      8 C         143.9185  138.9674  162.8842 C.3     1  UNL1        0.0234
      9 F         138.6227  140.1532  169.4001 F       1  UNL1       -0.2041
     10 C         139.5767  139.8651  168.2790 C.ar    1  UNL1        0.1433
     11 C         139.1171  139.9774  166.8556 C.ar    1  UNL1        0.0299
     12 C         140.0710  139.6893  165.7345 C.ar    1  UNL1        0.0067
     13 C         141.4846  139.2889  166.0367 C.ar    1  UNL1        0.0540
     14 C         142.6426  138.9455  165.1473 C.ar    1  UNL1        0.1003
     15 N         143.8179  138.6210  166.0209 N.ar    1  UNL1       -0.0814
     16 O         143.3863  138.7638  167.4504 O.2     1  UNL1       -0.3536
     17 C         141.9442  139.1766  167.4601 C.ar    1  UNL1        0.1787
     18 C         140.9903  139.4647  168.5812 C.ar    1  UNL1        0.0698
     19 C         141.5870  141.1992  158.5274 C.3     1  UNL1        0.2068
     20 O         141.8719  142.4915  159.2337 O.3     1  UNL1       -0.4754
     21 C         141.8927  142.5381  160.7328 C.ar    1  UNL1        0.1386
     22 C         143.2020  142.5748  161.4639 C.ar    1  UNL1        0.0371
     23 C         143.2228  142.6215  162.9630 C.ar    1  UNL1        0.0078
     24 C         141.9343  142.6314  163.7309 C.ar    1  UNL1        0.0538
     25 C         140.6250  142.5946  162.9998 C.ar    1  UNL1        0.0078
     26 C         140.6043  142.5480  161.5007 C.ar    1  UNL1        0.0371
     27 C         141.9551  142.6780  165.2301 C.ar    1  UNL1        0.2297
     28 N         143.1374  142.3836  166.1051 N.ar    1  UNL1       -0.2083
     29 C         142.7102  142.5509  167.5332 C.ar    1  UNL1        0.1189
     30 C         143.4514  142.3924  168.8277 C.ar    1  UNL1        0.0223
     31 C         142.7462  142.6317  170.1298 C.ar    1  UNL1        0.0018
     32 C         141.2999  143.0294  170.1375 C.ar    1  UNL1        0.0032
     33 C         140.5588  143.1879  168.8430 C.ar    1  UNL1        0.0391
     34 C         141.2640  142.9486  167.5409 C.ar    1  UNL1        0.1647
     35 O         140.7973  143.0272  166.1175 O.2     1  UNL1       -0.4346
@<TRIPOS>BOND
     1     9    10    1
     2    10    11   ar
     3    11    12   ar
     4    12    13   ar
     5    13    14   ar
     6    14     3    1
     7     3     4    1
     8     4     5    1
     9     5     6    1
    10     6     2    1
    11     2     1    1
    12     1    19    1
    13    19    20    1
    14    20    21    1
    15    21    22   ar
    16    22    23   ar
    17    23    24   ar
    18    24    27    1
    19    27    28   ar
    20    28    29   ar
    21    29    30   ar
    22    30    31   ar
    23    31    32   ar
    24    32    33   ar
    25    33    34   ar
    26    34    35   ar
    27    24    25   ar
    28    25    26   ar
    29     6     7    1
    30     7     8    1
    31    14    15   ar
    32    15    16   ar
    33    16    17   ar
    34    17    18   ar
    35    18    10   ar
    36    17    13   ar
    37     8     3    1
    38    26    21   ar
    39    35    27   ar
    40    34    29   ar
@<TRIPOS>MOLECULE
*****
 35 40 0 0 0
SMALL
GASTEIGER

@<TRIPOS>ATOM
      1 C         139.1658  143.7338  156.7397 C.3     1  UNL1        0.0646
      2 C         139.1991  142.2661  157.0475 C.3     1  UNL1        0.0759
      3 C         139.3905  140.8669  161.3202 C.3     1  UNL1        0.0464
      4 C         140.1976  140.1693  160.2656 C.3     1  UNL1        0.0234
      5 C         140.1338  140.6357  158.8414 C.3     1  UNL1        0.0725
      6 N         139.2629  141.7997  158.4717 N.3     1  UNL1       -0.2725
      7 C         138.4558  142.4972  159.5262 C.3     1  UNL1        0.0725
      8 C         138.5197  142.0308  160.9504 C.3     1  UNL1        0.0234
      9 F         143.7946  138.4644  166.3664 F       1  UNL1       -0.2041
     10 C         142.7587  138.9588  165.4007 C.ar    1  UNL1        0.1433
     11 C         143.1544  139.3341  164.0034 C.ar    1  UNL1        0.0299
     12 C         142.1185  139.8285  163.0378 C.ar    1  UNL1        0.0067
     13 C         140.6870  139.9476  163.4694 C.ar    1  UNL1        0.0540
     14 C         139.4544  140.4005  162.7444 C.ar    1  UNL1        0.1003
     15 N         138.2968  140.3050  163.6936 N.ar    1  UNL1       -0.0814
     16 O         138.8140  139.7932  165.0053 O.2     1  UNL1       -0.3536
     17 C         140.2913  139.5723  164.8667 C.ar    1  UNL1        0.1787
     18 C         141.3271  139.0779  165.8324 C.ar    1  UNL1        0.0698
     19 C         140.4320  144.4539  156.3817 C.3     1  UNL1        0.2068
     20 O         141.0901  145.3567  157.3826 O.3     1  UNL1       -0.4754
     21 C         141.2188  144.9233  158.8129 C.ar    1  UNL1        0.1386
     22 C         142.1671  143.8204  159.1798 C.ar    1  UNL1        0.0371
     23 C         142.2958  143.3869  160.6100 C.ar    1  UNL1        0.0078
     24 C         141.4764  144.0563  161.6732 C.ar    1  UNL1        0.0538
     25 C         140.5282  145.1592  161.3063 C.ar    1  UNL1        0.0078
     26 C         140.3994  145.5927  159.8761 C.ar    1  UNL1        0.0371
     27 C         141.6052  143.6229  163.1034 C.ar    1  UNL1        0.2297
     28 N         142.8781  143.2356  163.7962 N.ar    1  UNL1       -0.2083
     29 C         142.5433  142.8739  165.2129 C.ar    1  UNL1        0.1189
     30 C         143.3947  142.4167  166.3601 C.ar    1  UNL1        0.0223
     31 C         142.7664  142.1232  167.6901 C.ar    1  UNL1        0.0018
     32 C         141.2866  142.2870  167.8730 C.ar    1  UNL1        0.0032
     33 C         140.4352  142.7442  166.7258 C.ar    1  UNL1        0.0391
     34 C         141.0636  143.0377  165.3958 C.ar    1  UNL1        0.1647
     35 O         140.4838  143.5006  164.0921 O.2     1  UNL1       -0.4346
@<TRIPOS>BOND
     1     9    10    1
     2    10    11   ar
     3    11    12   ar
     4    12    13   ar
     5    13    14   ar
     6    14     3    1
     7     3     4    1
     8     4     5    1
     9     5     6    1
    10     6     2    1
    11     2     1    1
    12     1    19    1
    13    19    20    1
    14    20    21    1
    15    21    22   ar
    16    22    23   ar
    17    23    24   ar
    18    24    27    1
    19    27    28   ar
    20    28    29   ar
    21    29    30   ar
    22    30    31   ar
    23    31    32   ar
    24    32    33   ar
    25    33    34   ar
    26    34    35   ar
    27    24    25   ar
    28    25    26   ar
    29     6     7    1
    30     7     8    1
    31    14    15   ar
    32    15    16   ar
    33    16    17   ar
    34    17    18   ar
    35    18    10   ar
    36    17    13   ar
    37     8     3    1
    38    26    21   ar
    39    35    27   ar
    40    34    29   ar
@<TRIPOS>MOLECULE
*****
 35 40 0 0 0
SMALL
GASTEIGER

@<TRIPOS>ATOM
      1 C         142.1557  142.3884  155.2374 C.3     1  UNL1        0.0646
      2 C         140.7006  142.0712  155.4161 C.3     1  UNL1        0.0759
      3 C         138.8988  142.0193  159.5394 C.3     1  UNL1        0.0464
      4 C         139.0847  143.3215  158.8185 C.3     1  UNL1        0.0234
      5 C         139.6853  143.3388  157.4441 C.3     1  UNL1        0.0725
      6 N         140.1000  142.0539  156.7905 N.3     1  UNL1       -0.2725
      7 C         139.9140  140.7517  157.5114 C.3     1  UNL1        0.0725
      8 C         139.3134  140.7344  158.8858 C.3     1  UNL1        0.0234
      9 F         138.6827  145.5071  165.7378 F       1  UNL1       -0.2041
     10 C         138.6357  144.6756  164.4902 C.ar    1  UNL1        0.1433
     11 C         139.4347  145.0820  163.2875 C.ar    1  UNL1        0.0299
     12 C         139.3877  144.2505  162.0400 C.ar    1  UNL1        0.0067
     13 C         138.5416  143.0127  161.9951 C.ar    1  UNL1        0.0540
     14 C         138.2982  142.0020  160.9138 C.ar    1  UNL1        0.1003
     15 N         137.3487  140.9710  161.4481 N.ar    1  UNL1       -0.0814
     16 O         137.0053  141.3445  162.8597 O.2     1  UNL1       -0.3536
     17 C         137.7426  142.6064  163.1977 C.ar    1  UNL1        0.1787
     18 C         137.7896  143.4378  164.4453 C.ar    1  UNL1        0.0698
     19 C         143.1978  141.4979  155.8466 C.3     1  UNL1        0.2068
     20 O         144.0029  141.9778  157.0177 O.3     1  UNL1       -0.4754
     21 C         143.4457  141.8687  158.4061 C.ar    1  UNL1        0.1386
     22 C         143.0066  143.1028  159.1371 C.ar    1  UNL1        0.0371
     23 C         142.4495  142.9938  160.5255 C.ar    1  UNL1        0.0078
     24 C         142.3315  141.6507  161.1829 C.ar    1  UNL1        0.0538
     25 C         142.7706  140.4166  160.4519 C.ar    1  UNL1        0.0078
     26 C         143.3277  140.5256  159.0635 C.ar    1  UNL1        0.0371
     27 C         141.7743  141.5416  162.5713 C.ar    1  UNL1        0.2297
     28 N         140.8780  140.4510  163.0786 N.ar    1  UNL1       -0.2083
     29 C         140.5653  140.7393  164.5170 C.ar    1  UNL1        0.1189
     30 C         139.7313  140.0105  165.5285 C.ar    1  UNL1        0.0223
     31 C         139.6003  140.5504  166.9218 C.ar    1  UNL1        0.0018
     32 C         140.3034  141.8192  167.3036 C.ar    1  UNL1        0.0032
     33 C         141.1375  142.5481  166.2921 C.ar    1  UNL1        0.0391
     34 C         141.2684  142.0081  164.8988 C.ar    1  UNL1        0.1647
     35 O         142.0156  142.5039  163.6963 O.2     1  UNL1       -0.4346
@<TRIPOS>BOND
     1     9    10    1
     2    10    11   ar
     3    11    12   ar
     4    12    13   ar
     5    13    14   ar
     6    14     3    1
     7     3     4    1
     8     4     5    1
     9     5     6    1
    10     6     2    1
    11     2     1    1
    12     1    19    1
    13    19    20    1
    14    20    21    1
    15    21    22   ar
    16    22    23   ar
    17    23    24   ar
    18    24    27    1
    19    27    28   ar
    20    28    29   ar
    21    29    30   ar
    22    30    31   ar
    23    31    32   ar
    24    32    33   ar
    25    33    34   ar
    26    34    35   ar
    27    24    25   ar
    28    25    26   ar
    29     6     7    1
    30     7     8    1
    31    14    15   ar
    32    15    16   ar
    33    16    17   ar
    34    17    18   ar
    35    18    10   ar
    36    17    13   ar
    37     8     3    1
    38    26    21   ar
    39    35    27   ar
    40    34    29   ar
