@<TRIPOS>MOLECULE
*****
 36 40 0 0 0
SMALL
GASTEIGER

@<TRIPOS>ATOM
      1 C         142.6726  137.8751  158.9532 C.2     1  UNL1        0.2425
      2 O         142.2280  139.3077  158.9442 O.2     1  UNL1       -0.2733
      3 N         143.0184  137.2053  160.2500 N.am    1  UNL1       -0.3018
      4 H         143.3102  136.2650  160.2559 H       1  UNL1        0.1495
      5 C         142.9196  137.9680  161.5378 C.3     1  UNL1        0.1035
      6 C         143.8669  138.7939  162.3568 C.3     1  UNL1        0.0933
      7 N         142.7799  139.0468  163.3590 N.3     1  UNL1       -0.2711
      8 C         141.8326  138.2210  162.5400 C.3     1  UNL1        0.0933
      9 C         142.6810  139.8096  164.6468 C.3     1  UNL1        0.0576
     10 C         142.7831  139.0860  165.9568 C.3     1  UNL1        0.0163
     11 C         142.6842  139.8487  167.2445 C.3     1  UNL1        0.0063
     12 C         142.4833  141.3351  167.2224 C.3     1  UNL1        0.0301
     13 C         142.3812  142.0586  165.9124 C.3     1  UNL1        0.0063
     14 C         142.4801  141.2959  164.6246 C.3     1  UNL1        0.0163
     15 C         142.3844  142.0977  168.5102 C.ar    1  UNL1        0.0275
     16 C         141.1913  142.8717  168.9872 C.ar    1  UNL1        0.1016
     17 N         141.5307  143.4727  170.3190 N.ar    1  UNL1       -0.2351
     18 C         142.9336  143.0701  170.6652 C.ar    1  UNL1        0.1342
     19 S         143.4613  142.2204  169.5473 S.2     1  UNL1       -0.0688
     20 C         142.7715  137.1124  157.6654 C.3     1  UNL1        0.1747
     21 N         141.5337  136.8196  156.8701 N.pl3   1  UNL1       -0.3093
     22 H         140.6949  137.2936  157.0727 H       1  UNL1        0.1487
     23 C         140.5970  134.3080  152.3210 C.3     1  UNL1        0.1537
     24 N         141.1434  134.6503  153.6753 N.ar    1  UNL1       -0.2476
     25 N         140.8007  135.8672  154.4825 N.ar    1  UNL1       -0.1544
     26 C         141.5740  135.8048  155.7663 C.ar    1  UNL1        0.1500
     27 C         142.3947  134.5493  155.7525 C.ar    1  UNL1        0.0503
     28 C         143.3499  133.9636  156.7497 C.ar    1  UNL1        0.0082
     29 C         144.0390  132.6643  156.4546 C.ar    1  UNL1        0.0716
     30 C         143.7729  131.9508  155.1623 C.ar    1  UNL1        0.0054
     31 C         142.8177  132.5365  154.1651 C.ar    1  UNL1        0.0188
     32 C         142.1286  133.8358  154.4602 C.ar    1  UNL1        0.0807
     33 C         144.9942  132.0786  157.4519 C.3     1  UNL1        0.4186
     34 F         145.9494  131.4929  158.4491 F       1  UNL1       -0.1659
     35 F         144.6910  133.1999  158.4009 F       1  UNL1       -0.1659
     36 F         145.2975  130.9573  156.5028 F       1  UNL1       -0.1659
@<TRIPOS>BOND
     1    23    24    1
     2    24    25   ar
     3    25    26   ar
     4    26    21    1
     5    21    20    1
     6    20     1    1
     7     1     2    2
     8     1     3   am
     9     3     5    1
    10     5     6    1
    11     6     7    1
    12     9     7    1
    13     9    10    1
    14    10    11    1
    15    11    12    1
    16    12    15    1
    17    15    16   ar
    18    16    17   ar
    19    17    18   ar
    20    18    19   ar
    21    12    13    1
    22    13    14    1
    23     7     8    1
    24    26    27   ar
    25    27    28   ar
    26    28    29   ar
    27    29    33    1
    28    33    34    1
    29    33    35    1
    30    33    36    1
    31    29    30   ar
    32    30    31   ar
    33    31    32   ar
    34    32    24   ar
    35     8     5    1
    36    32    27   ar
    37    14     9    1
    38    19    15   ar
    39    21    22    1
    40     3     4    1
@<TRIPOS>MOLECULE
*****
 36 40 0 0 0
SMALL
GASTEIGER

@<TRIPOS>ATOM
      1 C         142.1876  137.7912  158.3611 C.2     1  UNL1        0.2425
      2 O         141.0054  138.6485  158.7038 O.2     1  UNL1       -0.2733
      3 N         143.1525  137.3808  159.4337 N.am    1  UNL1       -0.3018
      4 H         143.9284  136.8180  159.2088 H       1  UNL1        0.1495
      5 C         142.9352  137.8277  160.8490 C.3     1  UNL1        0.1035
      6 C         143.7009  138.6725  161.8239 C.3     1  UNL1        0.0933
      7 N         142.6280  138.4600  162.8505 N.3     1  UNL1       -0.2711
      8 C         141.8625  137.6153  161.8756 C.3     1  UNL1        0.0933
      9 C         142.4108  138.9070  164.2658 C.3     1  UNL1        0.0576
     10 C         141.3100  139.8742  164.5862 C.3     1  UNL1        0.0163
     11 C         141.0927  140.3212  166.0013 C.3     1  UNL1        0.0063
     12 C         141.9762  139.8009  167.0963 C.3     1  UNL1        0.0301
     13 C         143.0770  138.8337  166.7759 C.3     1  UNL1        0.0063
     14 C         143.2943  138.3867  165.3606 C.3     1  UNL1        0.0163
     15 C         141.7588  140.2480  168.5115 C.ar    1  UNL1        0.0275
     16 C         142.7869  140.8756  169.4056 C.ar    1  UNL1        0.1016
     17 N         142.1387  141.1615  170.7278 N.ar    1  UNL1       -0.2351
     18 C         140.7102  140.7106  170.6510 C.ar    1  UNL1        0.1342
     19 S         140.4754  140.1460  169.2812 S.2     1  UNL1       -0.0688
     20 C         142.4049  137.3442  156.9459 C.3     1  UNL1        0.1747
     21 N         141.8216  136.0462  156.4713 N.pl3   1  UNL1       -0.3093
     22 H         140.9459  136.0352  156.0216 H       1  UNL1        0.1487
     23 C         145.3593  132.5233  158.1904 C.3     1  UNL1        0.1537
     24 N         144.1986  133.1457  157.4723 N.ar    1  UNL1       -0.2476
     25 N         143.7752  134.5820  157.5597 N.ar    1  UNL1       -0.1544
     26 C         142.5726  134.7649  156.6822 C.ar    1  UNL1        0.1500
     27 C         142.2526  133.4416  156.0524 C.ar    1  UNL1        0.0503
     28 C         141.1761  133.0186  155.0974 C.ar    1  UNL1        0.0082
     29 C         141.1045  131.5949  154.6307 C.ar    1  UNL1        0.0716
     30 C         142.1095  130.5941  155.1191 C.ar    1  UNL1        0.0054
     31 C         143.1860  131.0171  156.0741 C.ar    1  UNL1        0.0188
     32 C         143.2576  132.4408  156.5407 C.ar    1  UNL1        0.0807
     33 C         140.0279  131.1719  153.6757 C.3     1  UNL1        0.4186
     34 F         138.9514  130.7489  152.7206 F       1  UNL1       -0.1659
     35 F         140.5816  132.1037  152.6388 F       1  UNL1       -0.1659
     36 F         139.4742  130.2401  154.7125 F       1  UNL1       -0.1659
@<TRIPOS>BOND
     1    23    24    1
     2    24    25   ar
     3    25    26   ar
     4    26    21    1
     5    21    20    1
     6    20     1    1
     7     1     2    2
     8     1     3   am
     9     3     5    1
    10     5     6    1
    11     6     7    1
    12     9     7    1
    13     9    10    1
    14    10    11    1
    15    11    12    1
    16    12    15    1
    17    15    16   ar
    18    16    17   ar
    19    17    18   ar
    20    18    19   ar
    21    12    13    1
    22    13    14    1
    23     7     8    1
    24    26    27   ar
    25    27    28   ar
    26    28    29   ar
    27    29    33    1
    28    33    34    1
    29    33    35    1
    30    33    36    1
    31    29    30   ar
    32    30    31   ar
    33    31    32   ar
    34    32    24   ar
    35     8     5    1
    36    32    27   ar
    37    14     9    1
    38    19    15   ar
    39    21    22    1
    40     3     4    1
@<TRIPOS>MOLECULE
*****
 36 40 0 0 0
SMALL
GASTEIGER

@<TRIPOS>ATOM
      1 C         138.8810  143.4668  161.9176 C.2     1  UNL1        0.2425
      2 O         137.7278  142.8117  161.2171 O.2     1  UNL1       -0.2733
      3 N         140.2794  142.9812  161.6757 N.am    1  UNL1       -0.3018
      4 H         141.0363  143.4112  162.1355 H       1  UNL1        0.1495
      5 C         140.5246  141.8404  160.7331 C.3     1  UNL1        0.1035
      6 C         140.8109  141.7198  159.2655 C.3     1  UNL1        0.0933
      7 N         140.8713  140.2271  159.4000 N.3     1  UNL1       -0.2711
      8 C         140.5849  140.3477  160.8675 C.3     1  UNL1        0.0933
      9 C         141.1164  139.0863  158.4574 C.3     1  UNL1        0.0576
     10 C         139.9869  138.5323  157.6406 C.3     1  UNL1        0.0163
     11 C         140.2320  137.3916  156.6981 C.3     1  UNL1        0.0063
     12 C         141.6067  136.8046  156.5723 C.3     1  UNL1        0.0301
     13 C         142.7362  137.3586  157.3891 C.3     1  UNL1        0.0063
     14 C         142.4911  138.4994  158.3317 C.3     1  UNL1        0.0163
     15 C         141.8517  135.6639  155.6297 C.ar    1  UNL1        0.0275
     16 C         142.2818  134.2792  156.0143 C.ar    1  UNL1        0.1016
     17 N         142.4056  133.4669  154.7594 N.ar    1  UNL1       -0.2351
     18 C         142.0520  134.3495  153.5992 C.ar    1  UNL1        0.1342
     19 S         141.7098  135.7072  154.1370 S.2     1  UNL1       -0.0688
     20 C         138.6359  144.6077  162.8602 C.3     1  UNL1        0.1747
     21 N         139.0476  144.4942  164.2982 N.pl3   1  UNL1       -0.3093
     22 H         138.5186  144.9404  164.9984 H       1  UNL1        0.1487
     23 C         144.0770  143.0537  165.0129 C.3     1  UNL1        0.1537
     24 N         142.5772  143.0389  164.9978 N.ar    1  UNL1       -0.2476
     25 N         141.6896  144.1385  164.4949 N.ar    1  UNL1       -0.1544
     26 C         140.2655  143.7010  164.6693 C.ar    1  UNL1        0.1500
     27 C         140.2729  142.3309  165.2799 C.ar    1  UNL1        0.0503
     28 C         139.1633  141.4031  165.6772 C.ar    1  UNL1        0.0082
     29 C         139.4825  140.0661  166.2776 C.ar    1  UNL1        0.0716
     30 C         140.9112  139.6568  166.4806 C.ar    1  UNL1        0.0054
     31 C         142.0208  140.5846  166.0833 C.ar    1  UNL1        0.0188
     32 C         141.7016  141.9217  165.4829 C.ar    1  UNL1        0.0807
     33 C         138.3728  139.1382  166.6750 C.3     1  UNL1        0.4186
     34 F         137.2633  138.2104  167.0724 F       1  UNL1       -0.1659
     35 F         138.5982  139.4861  168.1165 F       1  UNL1       -0.1659
     36 F         138.1474  138.7903  165.2334 F       1  UNL1       -0.1659
@<TRIPOS>BOND
     1    23    24    1
     2    24    25   ar
     3    25    26   ar
     4    26    21    1
     5    21    20    1
     6    20     1    1
     7     1     2    2
     8     1     3   am
     9     3     5    1
    10     5     6    1
    11     6     7    1
    12     9     7    1
    13     9    10    1
    14    10    11    1
    15    11    12    1
    16    12    15    1
    17    15    16   ar
    18    16    17   ar
    19    17    18   ar
    20    18    19   ar
    21    12    13    1
    22    13    14    1
    23     7     8    1
    24    26    27   ar
    25    27    28   ar
    26    28    29   ar
    27    29    33    1
    28    33    34    1
    29    33    35    1
    30    33    36    1
    31    29    30   ar
    32    30    31   ar
    33    31    32   ar
    34    32    24   ar
    35     8     5    1
    36    32    27   ar
    37    14     9    1
    38    19    15   ar
    39    21    22    1
    40     3     4    1
@<TRIPOS>MOLECULE
*****
 36 40 0 0 0
SMALL
GASTEIGER

@<TRIPOS>ATOM
      1 C         140.8670  145.4564  159.3667 C.2     1  UNL1        0.2425
      2 O         139.6810  145.8514  160.1957 O.2     1  UNL1       -0.2733
      3 N         141.9651  144.6337  159.9726 N.am    1  UNL1       -0.3018
      4 H         142.7435  144.3744  159.4284 H       1  UNL1        0.1495
      5 C         141.8772  144.2059  161.4076 C.3     1  UNL1        0.1035
      6 C         141.4478  142.9561  162.1174 C.3     1  UNL1        0.0933
      7 N         141.7528  143.6009  163.4370 N.3     1  UNL1       -0.2711
      8 C         142.1822  144.8506  162.7272 C.3     1  UNL1        0.0933
      9 C         141.6649  143.1731  164.8720 C.3     1  UNL1        0.0576
     10 C         142.8755  142.6229  165.5662 C.3     1  UNL1        0.0163
     11 C         142.7876  142.1952  167.0011 C.3     1  UNL1        0.0063
     12 C         141.4891  142.3176  167.7421 C.3     1  UNL1        0.0301
     13 C         140.2785  142.8678  167.0480 C.3     1  UNL1        0.0063
     14 C         140.3664  143.2955  165.6130 C.3     1  UNL1        0.0163
     15 C         141.4013  141.8898  169.1771 C.ar    1  UNL1        0.0275
     16 C         140.3685  142.3370  170.1688 C.ar    1  UNL1        0.1016
     17 N         140.6597  141.6634  171.4770 N.ar    1  UNL1       -0.2351
     18 C         141.8724  140.7997  171.2938 C.ar    1  UNL1        0.1342
     19 S         142.3307  140.9397  169.8725 S.2     1  UNL1       -0.0688
     20 C         140.9549  145.8842  157.9316 C.3     1  UNL1        0.1747
     21 N         140.2663  145.0830  156.8666 N.pl3   1  UNL1       -0.3093
     22 H         139.4747  144.5427  157.0916 H       1  UNL1        0.1487
     23 C         142.5278  143.6227  152.3242 C.3     1  UNL1        0.1537
     24 N         141.8235  144.4339  153.3711 N.ar    1  UNL1       -0.2476
     25 N         141.4813  143.9770  154.7582 N.ar    1  UNL1       -0.1544
     26 C         140.7840  145.1051  155.4590 C.ar    1  UNL1        0.1500
     27 C         140.6952  146.2592  154.5050 C.ar    1  UNL1        0.0503
     28 C         140.1123  147.6342  154.6446 C.ar    1  UNL1        0.0082
     29 C         140.1719  148.5944  153.4938 C.ar    1  UNL1        0.0716
     30 C         140.8144  148.1796  152.2034 C.ar    1  UNL1        0.0054
     31 C         141.3972  146.8046  152.0637 C.ar    1  UNL1        0.0188
     32 C         141.3376  145.8444  153.2145 C.ar    1  UNL1        0.0807
     33 C         139.5891  149.9696  153.6334 C.3     1  UNL1        0.4186
     34 F         139.0063  151.3446  153.7730 F       1  UNL1       -0.1659
     35 F         139.8966  149.9508  155.1014 F       1  UNL1       -0.1659
     36 F         139.2816  149.9883  152.1654 F       1  UNL1       -0.1659
@<TRIPOS>BOND
     1    23    24    1
     2    24    25   ar
     3    25    26   ar
     4    26    21    1
     5    21    20    1
     6    20     1    1
     7     1     2    2
     8     1     3   am
     9     3     5    1
    10     5     6    1
    11     6     7    1
    12     9     7    1
    13     9    10    1
    14    10    11    1
    15    11    12    1
    16    12    15    1
    17    15    16   ar
    18    16    17   ar
    19    17    18   ar
    20    18    19   ar
    21    12    13    1
    22    13    14    1
    23     7     8    1
    24    26    27   ar
    25    27    28   ar
    26    28    29   ar
    27    29    33    1
    28    33    34    1
    29    33    35    1
    30    33    36    1
    31    29    30   ar
    32    30    31   ar
    33    31    32   ar
    34    32    24   ar
    35     8     5    1
    36    32    27   ar
    37    14     9    1
    38    19    15   ar
    39    21    22    1
    40     3     4    1
@<TRIPOS>MOLECULE
*****
 36 40 0 0 0
SMALL
GASTEIGER

@<TRIPOS>ATOM
      1 C         138.6710  140.2583  162.9115 C.2     1  UNL1        0.2425
      2 O         138.2803  141.6596  163.2770 O.2     1  UNL1       -0.2733
      3 N         139.1788  139.9567  161.5327 N.am    1  UNL1       -0.3018
      4 H         139.4353  139.0369  161.2929 H       1  UNL1        0.1495
      5 C         139.2960  141.0565  160.5194 C.3     1  UNL1        0.1035
      6 C         138.3761  142.1203  159.9976 C.3     1  UNL1        0.0933
      7 N         139.4615  142.6118  159.0864 N.3     1  UNL1       -0.2711
      8 C         140.3813  141.5480  159.6083 C.3     1  UNL1        0.0933
      9 C         139.5786  143.7116  158.0731 C.3     1  UNL1        0.0576
     10 C         140.3061  144.9767  158.4200 C.3     1  UNL1        0.0163
     11 C         140.4232  146.0764  157.4068 C.3     1  UNL1        0.0063
     12 C         139.8129  145.9112  156.0465 C.3     1  UNL1        0.0301
     13 C         139.0854  144.6461  155.6996 C.3     1  UNL1        0.0063
     14 C         138.9683  143.5463  156.7129 C.3     1  UNL1        0.0163
     15 C         139.9301  147.0110  155.0333 C.ar    1  UNL1        0.0275
     16 C         139.2322  148.3377  155.0875 C.ar    1  UNL1        0.1016
     17 N         139.6364  149.1239  153.8758 N.ar    1  UNL1       -0.2351
     18 C         140.5841  148.2832  153.0726 C.ar    1  UNL1        0.1342
     19 S         140.7656  146.9773  153.7880 S.2     1  UNL1       -0.0688
     20 C         138.5539  139.1585  163.9248 C.3     1  UNL1        0.1747
     21 N         138.7517  139.4567  165.3816 N.pl3   1  UNL1       -0.3093
     22 H         137.9796  139.6926  165.9450 H       1  UNL1        0.1487
     23 C         143.8177  138.2196  166.2096 C.3     1  UNL1        0.1537
     24 N         142.4544  138.8269  166.3604 N.ar    1  UNL1       -0.2476
     25 N         141.2798  138.5918  165.4577 N.ar    1  UNL1       -0.1544
     26 C         140.1259  139.3955  165.9798 C.ar    1  UNL1        0.1500
     27 C         140.5874  140.1273  167.2052 C.ar    1  UNL1        0.0503
     28 C         139.8831  141.0681  168.1372 C.ar    1  UNL1        0.0082
     29 C         140.6179  141.6576  169.3045 C.ar    1  UNL1        0.0716
     30 C         142.0571  141.3062  169.5397 C.ar    1  UNL1        0.0054
     31 C         142.7614  140.3653  168.6077 C.ar    1  UNL1        0.0188
     32 C         142.0265  139.7758  167.4405 C.ar    1  UNL1        0.0807
     33 C         139.9137  142.5985  170.2365 C.3     1  UNL1        0.4186
     34 F         139.2094  143.5394  171.1686 F       1  UNL1       -0.1659
     35 F         138.7925  141.6131  170.3842 F       1  UNL1       -0.1659
     36 F         141.0348  143.5840  170.0889 F       1  UNL1       -0.1659
@<TRIPOS>BOND
     1    23    24    1
     2    24    25   ar
     3    25    26   ar
     4    26    21    1
     5    21    20    1
     6    20     1    1
     7     1     2    2
     8     1     3   am
     9     3     5    1
    10     5     6    1
    11     6     7    1
    12     9     7    1
    13     9    10    1
    14    10    11    1
    15    11    12    1
    16    12    15    1
    17    15    16   ar
    18    16    17   ar
    19    17    18   ar
    20    18    19   ar
    21    12    13    1
    22    13    14    1
    23     7     8    1
    24    26    27   ar
    25    27    28   ar
    26    28    29   ar
    27    29    33    1
    28    33    34    1
    29    33    35    1
    30    33    36    1
    31    29    30   ar
    32    30    31   ar
    33    31    32   ar
    34    32    24   ar
    35     8     5    1
    36    32    27   ar
    37    14     9    1
    38    19    15   ar
    39    21    22    1
    40     3     4    1
@<TRIPOS>MOLECULE
*****
 36 40 0 0 0
SMALL
GASTEIGER

@<TRIPOS>ATOM
      1 C         141.0578  145.3721  159.4169 C.2     1  UNL1        0.2425
      2 O         139.8270  145.7065  160.2063 O.2     1  UNL1       -0.2733
      3 N         142.1758  144.6057  160.0594 N.am    1  UNL1       -0.3018
      4 H         142.9836  144.3862  159.5412 H       1  UNL1        0.1495
      5 C         142.0630  144.1738  161.4914 C.3     1  UNL1        0.1035
      6 C         141.4030  143.0319  162.2060 C.3     1  UNL1        0.0933
      7 N         141.9033  143.5630  163.5166 N.3     1  UNL1       -0.2711
      8 C         142.5632  144.7048  162.8020 C.3     1  UNL1        0.0933
      9 C         141.7905  143.1311  164.9486 C.3     1  UNL1        0.0576
     10 C         140.4693  143.2113  165.6543 C.3     1  UNL1        0.0163
     11 C         140.3564  142.7794  167.0863 C.3     1  UNL1        0.0063
     12 C         141.5648  142.2673  167.8127 C.3     1  UNL1        0.0301
     13 C         142.8860  142.1871  167.1071 C.3     1  UNL1        0.0063
     14 C         142.9988  142.6189  165.6750 C.3     1  UNL1        0.0163
     15 C         141.4518  141.8354  169.2447 C.ar    1  UNL1        0.0275
     16 C         140.4557  142.3457  170.2435 C.ar    1  UNL1        0.1016
     17 N         140.7033  141.6432  171.5455 N.ar    1  UNL1       -0.2351
     18 C         141.8523  140.6987  171.3514 C.ar    1  UNL1        0.1342
     19 S         142.3149  140.8175  169.9295 S.2     1  UNL1       -0.0688
     20 C         141.1707  145.8040  157.9848 C.3     1  UNL1        0.1747
     21 N         141.1777  144.7781  156.8904 N.pl3   1  UNL1       -0.3093
     22 H         142.0324  144.4591  156.5202 H       1  UNL1        0.1487
     23 C         136.8559  144.0975  153.9342 C.3     1  UNL1        0.1537
     24 N         137.8960  143.9256  155.0012 N.ar    1  UNL1       -0.2476
     25 N         139.1318  144.7588  155.1702 N.ar    1  UNL1       -0.1544
     26 C         139.8825  144.2384  156.3600 C.ar    1  UNL1        0.1500
     27 C         139.1108  143.0835  156.9262 C.ar    1  UNL1        0.0503
     28 C         139.3674  142.1830  158.0981 C.ar    1  UNL1        0.0082
     29 C         138.3962  141.0892  158.4301 C.ar    1  UNL1        0.0716
     30 C         137.1685  140.8958  157.5903 C.ar    1  UNL1        0.0054
     31 C         136.9119  141.7963  156.4185 C.ar    1  UNL1        0.0188
     32 C         137.8830  142.8902  156.0865 C.ar    1  UNL1        0.0807
     33 C         138.6528  140.1886  159.6019 C.3     1  UNL1        0.4186
     34 F         138.9094  139.2880  160.7737 F       1  UNL1       -0.1659
     35 F         138.8870  139.0391  158.6672 F       1  UNL1       -0.1659
     36 F         138.4186  141.3381  160.5367 F       1  UNL1       -0.1659
@<TRIPOS>BOND
     1    23    24    1
     2    24    25   ar
     3    25    26   ar
     4    26    21    1
     5    21    20    1
     6    20     1    1
     7     1     2    2
     8     1     3   am
     9     3     5    1
    10     5     6    1
    11     6     7    1
    12     9     7    1
    13     9    10    1
    14    10    11    1
    15    11    12    1
    16    12    15    1
    17    15    16   ar
    18    16    17   ar
    19    17    18   ar
    20    18    19   ar
    21    12    13    1
    22    13    14    1
    23     7     8    1
    24    26    27   ar
    25    27    28   ar
    26    28    29   ar
    27    29    33    1
    28    33    34    1
    29    33    35    1
    30    33    36    1
    31    29    30   ar
    32    30    31   ar
    33    31    32   ar
    34    32    24   ar
    35     8     5    1
    36    32    27   ar
    37    14     9    1
    38    19    15   ar
    39    21    22    1
    40     3     4    1
@<TRIPOS>MOLECULE
*****
 36 40 0 0 0
SMALL
GASTEIGER

@<TRIPOS>ATOM
      1 C         139.8240  138.3083  161.8021 C.2     1  UNL1        0.2425
      2 O         141.0019  137.3837  161.7148 O.2     1  UNL1       -0.2733
      3 N         139.7978  139.5685  160.9889 N.am    1  UNL1       -0.3018
      4 H         139.0247  140.1753  161.0462 H       1  UNL1        0.1495
      5 C         140.9495  139.9040  160.0884 C.3     1  UNL1        0.1035
      6 C         142.4435  139.8416  160.2091 C.3     1  UNL1        0.0933
      7 N         142.5785  140.3784  158.8150 N.3     1  UNL1       -0.2711
      8 C         141.0846  140.4408  158.6943 C.3     1  UNL1        0.0933
      9 C         143.7302  140.7140  157.9145 C.3     1  UNL1        0.0576
     10 C         144.0602  139.8217  156.7547 C.3     1  UNL1        0.0163
     11 C         145.2119  140.1572  155.8543 C.3     1  UNL1        0.0063
     12 C         146.0337  141.3850  156.1135 C.3     1  UNL1        0.0301
     13 C         145.7038  142.2772  157.2732 C.3     1  UNL1        0.0063
     14 C         144.5520  141.9417  158.1737 C.3     1  UNL1        0.0163
     15 C         147.1854  141.7204  155.2130 C.ar    1  UNL1        0.0275
     16 C         148.6237  141.8304  155.6248 C.ar    1  UNL1        0.1016
     17 N         149.4283  142.1827  154.4089 N.ar    1  UNL1       -0.2351
     18 C         148.4875  142.2904  153.2456 C.ar    1  UNL1        0.1342
     19 S         147.1014  142.0047  153.7425 S.2     1  UNL1       -0.0688
     20 C         138.6722  137.9728  162.7026 C.3     1  UNL1        0.1747
     21 N         138.8122  138.1264  164.1882 N.pl3   1  UNL1       -0.3093
     22 H         138.0612  137.8924  164.7802 H       1  UNL1        0.1487
     23 C         143.7287  138.3240  166.1037 C.3     1  UNL1        0.1537
     24 N         142.3563  138.7273  165.6522 N.ar    1  UNL1       -0.2476
     25 N         141.3103  137.8132  165.0864 N.ar    1  UNL1       -0.1544
     26 C         140.0965  138.6365  164.7718 C.ar    1  UNL1        0.1500
     27 C         140.3924  140.0593  165.1432 C.ar    1  UNL1        0.0503
     28 C         139.5705  141.3110  165.0562 C.ar    1  UNL1        0.0082
     29 C         140.1453  142.6189  165.5133 C.ar    1  UNL1        0.0716
     30 C         141.5419  142.6751  166.0575 C.ar    1  UNL1        0.0054
     31 C         142.3638  141.4233  166.1445 C.ar    1  UNL1        0.0188
     32 C         141.7890  140.1155  165.6873 C.ar    1  UNL1        0.0807
     33 C         139.3234  143.8707  165.4263 C.3     1  UNL1        0.4186
     34 F         138.5015  145.1225  165.3393 F       1  UNL1       -0.1659
     35 F         139.0892  143.6155  163.9669 F       1  UNL1       -0.1659
     36 F         139.5575  144.1259  166.8858 F       1  UNL1       -0.1659
@<TRIPOS>BOND
     1    23    24    1
     2    24    25   ar
     3    25    26   ar
     4    26    21    1
     5    21    20    1
     6    20     1    1
     7     1     2    2
     8     1     3   am
     9     3     5    1
    10     5     6    1
    11     6     7    1
    12     9     7    1
    13     9    10    1
    14    10    11    1
    15    11    12    1
    16    12    15    1
    17    15    16   ar
    18    16    17   ar
    19    17    18   ar
    20    18    19   ar
    21    12    13    1
    22    13    14    1
    23     7     8    1
    24    26    27   ar
    25    27    28   ar
    26    28    29   ar
    27    29    33    1
    28    33    34    1
    29    33    35    1
    30    33    36    1
    31    29    30   ar
    32    30    31   ar
    33    31    32   ar
    34    32    24   ar
    35     8     5    1
    36    32    27   ar
    37    14     9    1
    38    19    15   ar
    39    21    22    1
    40     3     4    1
@<TRIPOS>MOLECULE
*****
 36 40 0 0 0
SMALL
GASTEIGER

@<TRIPOS>ATOM
      1 C         139.9614  138.9806  161.0455 C.2     1  UNL1        0.2425
      2 O         141.0907  139.6130  161.8036 O.2     1  UNL1       -0.2733
      3 N         140.0438  138.8420  159.5543 N.am    1  UNL1       -0.3018
      4 H         139.3025  138.4269  159.0568 H       1  UNL1        0.1495
      5 C         141.2555  139.3358  158.8210 C.3     1  UNL1        0.1035
      6 C         141.5064  140.3654  157.7593 C.3     1  UNL1        0.0933
      7 N         142.9692  140.0343  157.7839 N.3     1  UNL1       -0.2711
      8 C         142.7183  139.0048  158.8456 C.3     1  UNL1        0.0933
      9 C         144.1810  140.5282  157.0507 C.3     1  UNL1        0.0576
     10 C         144.9778  141.6723  157.6038 C.3     1  UNL1        0.0163
     11 C         146.1896  142.1662  156.8706 C.3     1  UNL1        0.0063
     12 C         146.6046  141.5159  155.5841 C.3     1  UNL1        0.0301
     13 C         145.8078  140.3718  155.0310 C.3     1  UNL1        0.0063
     14 C         144.5960  139.8779  155.7642 C.3     1  UNL1        0.0163
     15 C         147.8164  142.0099  154.8510 C.ar    1  UNL1        0.0275
     16 C         149.2399  141.6490  155.1569 C.ar    1  UNL1        0.1016
     17 N         150.1208  142.3674  154.1782 N.ar    1  UNL1       -0.2351
     18 C         149.2418  143.1723  153.2674 C.ar    1  UNL1        0.1342
     19 S         147.8176  142.9513  153.6832 S.2     1  UNL1       -0.0688
     20 C         138.7496  138.4867  161.7788 C.3     1  UNL1        0.1747
     21 N         137.8988  139.4482  162.5547 N.pl3   1  UNL1       -0.3093
     22 H         137.0133  139.7088  162.2124 H       1  UNL1        0.1487
     23 C         139.3930  139.8757  167.6010 C.3     1  UNL1        0.1537
     24 N         139.0841  140.2091  166.1715 N.ar    1  UNL1       -0.2476
     25 N         138.5603  139.2570  165.1375 N.ar    1  UNL1       -0.1544
     26 C         138.3973  140.0126  163.8520 C.ar    1  UNL1        0.1500
     27 C         138.8203  141.4316  164.0915 C.ar    1  UNL1        0.0503
     28 C         138.8738  142.6289  163.1895 C.ar    1  UNL1        0.0082
     29 C         139.3517  143.9476  163.7210 C.ar    1  UNL1        0.0716
     30 C         139.7762  144.0690  165.1545 C.ar    1  UNL1        0.0054
     31 C         139.7227  142.8718  166.0566 C.ar    1  UNL1        0.0188
     32 C         139.2447  141.5531  165.5250 C.ar    1  UNL1        0.0807
     33 C         139.4053  145.1449  162.8189 C.3     1  UNL1        0.4186
     34 F         139.4588  146.3422  161.9169 F       1  UNL1       -0.1659
     35 F         140.8930  145.2128  162.9974 F       1  UNL1       -0.1659
     36 F         137.9175  145.0770  162.6405 F       1  UNL1       -0.1659
@<TRIPOS>BOND
     1    23    24    1
     2    24    25   ar
     3    25    26   ar
     4    26    21    1
     5    21    20    1
     6    20     1    1
     7     1     2    2
     8     1     3   am
     9     3     5    1
    10     5     6    1
    11     6     7    1
    12     9     7    1
    13     9    10    1
    14    10    11    1
    15    11    12    1
    16    12    15    1
    17    15    16   ar
    18    16    17   ar
    19    17    18   ar
    20    18    19   ar
    21    12    13    1
    22    13    14    1
    23     7     8    1
    24    26    27   ar
    25    27    28   ar
    26    28    29   ar
    27    29    33    1
    28    33    34    1
    29    33    35    1
    30    33    36    1
    31    29    30   ar
    32    30    31   ar
    33    31    32   ar
    34    32    24   ar
    35     8     5    1
    36    32    27   ar
    37    14     9    1
    38    19    15   ar
    39    21    22    1
    40     3     4    1
@<TRIPOS>MOLECULE
*****
 36 40 0 0 0
SMALL
GASTEIGER

@<TRIPOS>ATOM
      1 C         140.4744  138.9775  159.1082 C.2     1  UNL1        0.2425
      2 O         141.7594  138.5774  159.7706 O.2     1  UNL1       -0.2733
      3 N         139.3990  139.6546  159.9050 N.am    1  UNL1       -0.3018
      4 H         138.5556  139.9172  159.4702 H       1  UNL1        0.1495
      5 C         139.6085  139.9315  161.3642 C.3     1  UNL1        0.1035
      6 C         139.7959  141.1678  162.1930 C.3     1  UNL1        0.0933
      7 N         139.9048  140.3233  163.4279 N.3     1  UNL1       -0.2711
      8 C         139.7174  139.0872  162.5992 C.3     1  UNL1        0.0933
      9 C         140.1143  140.6002  164.8872 C.3     1  UNL1        0.0576
     10 C         141.0962  141.6491  165.3181 C.3     1  UNL1        0.0163
     11 C         141.3057  141.9261  166.7773 C.3     1  UNL1        0.0063
     12 C         140.5333  141.1541  167.8057 C.3     1  UNL1        0.0301
     13 C         139.5514  140.1052  167.3748 C.3     1  UNL1        0.0063
     14 C         139.3419  139.8283  165.9155 C.3     1  UNL1        0.0163
     15 C         140.7429  141.4311  169.2649 C.ar    1  UNL1        0.0275
     16 C         139.7507  142.0669  170.1930 C.ar    1  UNL1        0.1016
     17 N         140.3760  142.1497  171.5539 N.ar    1  UNL1       -0.2351
     18 C         141.7547  141.5652  171.4670 C.ar    1  UNL1        0.1342
     19 S         141.9815  141.1211  170.0523 S.2     1  UNL1       -0.0688
     20 C         140.2649  138.7006  157.6490 C.3     1  UNL1        0.1747
     21 N         139.5642  137.4467  157.2166 N.pl3   1  UNL1       -0.3093
     22 H         139.0831  136.8986  157.8779 H       1  UNL1        0.1487
     23 C         138.4038  137.0221  152.0830 C.3     1  UNL1        0.1537
     24 N         139.0632  136.8328  153.4169 N.ar    1  UNL1       -0.2476
     25 N         138.6720  137.5087  154.6976 N.ar    1  UNL1       -0.1544
     26 C         139.5965  137.0280  155.7765 C.ar    1  UNL1        0.1500
     27 C         140.5591  136.0550  155.1627 C.ar    1  UNL1        0.0503
     28 C         141.6931  135.2633  155.7433 C.ar    1  UNL1        0.0082
     29 C         142.4975  134.3509  154.8655 C.ar    1  UNL1        0.0716
     30 C         142.1679  134.2303  153.4072 C.ar    1  UNL1        0.0054
     31 C         141.0338  135.0220  152.8266 C.ar    1  UNL1        0.0188
     32 C         140.2294  135.9344  153.7044 C.ar    1  UNL1        0.0807
     33 C         143.6316  133.5592  155.4461 C.3     1  UNL1        0.4186
     34 F         144.7656  132.7674  156.0266 F       1  UNL1       -0.1659
     35 F         143.2696  132.3976  154.5688 F       1  UNL1       -0.1659
     36 F         143.9936  134.7208  156.3233 F       1  UNL1       -0.1659
@<TRIPOS>BOND
     1    23    24    1
     2    24    25   ar
     3    25    26   ar
     4    26    21    1
     5    21    20    1
     6    20     1    1
     7     1     2    2
     8     1     3   am
     9     3     5    1
    10     5     6    1
    11     6     7    1
    12     9     7    1
    13     9    10    1
    14    10    11    1
    15    11    12    1
    16    12    15    1
    17    15    16   ar
    18    16    17   ar
    19    17    18   ar
    20    18    19   ar
    21    12    13    1
    22    13    14    1
    23     7     8    1
    24    26    27   ar
    25    27    28   ar
    26    28    29   ar
    27    29    33    1
    28    33    34    1
    29    33    35    1
    30    33    36    1
    31    29    30   ar
    32    30    31   ar
    33    31    32   ar
    34    32    24   ar
    35     8     5    1
    36    32    27   ar
    37    14     9    1
    38    19    15   ar
    39    21    22    1
    40     3     4    1
