@<TRIPOS>MOLECULE
*****
 31 35 0 0 0
SMALL
GASTEIGER

@<TRIPOS>ATOM
      1 C         139.0045  138.9258  162.8378 C.ar    1  UNL1        0.0651
      2 C         139.2646  137.7044  163.6686 C.ar    1  UNL1        0.0177
      3 C         138.9901  137.7278  165.1431 C.ar    1  UNL1        0.0060
      4 C         138.4556  138.9727  165.7868 C.ar    1  UNL1        0.0537
      5 C         138.1955  140.1942  164.9560 C.ar    1  UNL1        0.0060
      6 C         138.4699  140.1708  163.4815 C.ar    1  UNL1        0.0177
      7 C         136.9030  139.7527  160.4821 C.3     1  UNL1        0.0722
      8 C         138.3130  139.2825  160.2805 C.ar    1  UNL1        0.1246
      9 N         139.0047  139.1098  158.9608 N.ar    1  UNL1       -0.2306
     10 C         140.3981  138.6229  159.2279 C.ar    1  UNL1        0.0986
     11 C         141.5345  138.2798  158.3109 C.ar    1  UNL1        0.0206
     12 C         142.8403  137.8085  158.8787 C.ar    1  UNL1        0.0016
     13 C         143.0099  137.6803  160.3636 C.ar    1  UNL1        0.0016
     14 C         141.8735  138.0235  161.2806 C.ar    1  UNL1        0.0191
     15 C         140.5677  138.4948  160.7127 C.ar    1  UNL1        0.0826
     16 N         139.2790  138.9024  161.3633 N.ar    1  UNL1       -0.2936
     17 C         138.1811  138.9961  167.2613 C.2     1  UNL1        0.2491
     18 O         137.0669  138.1683  167.8299 O.2     1  UNL1       -0.2699
     19 N         139.0208  139.8473  168.1671 N.am    1  UNL1       -0.2745
     20 C         138.7462  139.8707  169.6416 C.3     1  UNL1        0.1151
     21 C         140.1349  140.6751  167.5983 C.3     1  UNL1        0.0930
     22 C         140.3577  142.1386  167.8398 C.3     1  UNL1        0.0386
     23 C         141.5823  142.5527  167.0790 C.3     1  UNL1        0.0738
     24 N         142.1164  141.3452  166.3673 N.3     1  UNL1       -0.2725
     25 C         141.2218  140.1847  166.6883 C.3     1  UNL1        0.0921
     26 C         143.3316  141.3051  165.4889 C.3     1  UNL1        0.0575
     27 C         143.8475  139.9910  164.9820 C.3     1  UNL1        0.0160
     28 C         145.0627  139.9508  164.1036 C.3     1  UNL1        0.0014
     29 C         145.7621  141.2248  163.7321 C.3     1  UNL1        0.0001
     30 C         145.2461  142.5389  164.2390 C.3     1  UNL1        0.0014
     31 C         144.0309  142.5790  165.1174 C.3     1  UNL1        0.0160
@<TRIPOS>BOND
     1     7     8    1
     2     8     9   ar
     3     9    10   ar
     4    10    11   ar
     5    11    12   ar
     6    12    13   ar
     7    13    14   ar
     8    14    15   ar
     9    15    16   ar
    10    16     1    1
    11     1     2   ar
    12     2     3   ar
    13     3     4   ar
    14     4    17    1
    15    17    18    2
    16    17    19   am
    17    19    20    1
    18    21    19    1
    19    21    22    1
    20    22    23    1
    21    23    24    1
    22    24    26    1
    23    26    27    1
    24    27    28    1
    25    28    29    1
    26    29    30    1
    27    30    31    1
    28    24    25    1
    29     4     5   ar
    30     5     6   ar
    31    16     8   ar
    32     6     1   ar
    33    15    10   ar
    34    25    21    1
    35    31    26    1
@<TRIPOS>MOLECULE
*****
 31 35 0 0 0
SMALL
GASTEIGER

@<TRIPOS>ATOM
      1 C         139.4658  139.3598  165.3135 C.ar    1  UNL1        0.0651
      2 C         140.4135  138.2797  164.8834 C.ar    1  UNL1        0.0177
      3 C         140.6237  138.0036  163.4241 C.ar    1  UNL1        0.0060
      4 C         139.8860  138.8075  162.3948 C.ar    1  UNL1        0.0537
      5 C         138.9382  139.8877  162.8248 C.ar    1  UNL1        0.0060
      6 C         138.7281  140.1638  164.2841 C.ar    1  UNL1        0.0177
      7 C         137.2403  137.9413  167.2331 C.3     1  UNL1        0.0722
      8 C         138.2327  138.9840  167.6551 C.ar    1  UNL1        0.1246
      9 N         138.3764  139.5577  169.0336 N.ar    1  UNL1       -0.2306
     10 C         139.4881  140.5642  169.0032 C.ar    1  UNL1        0.0986
     11 C         140.0758  141.4430  170.0673 C.ar    1  UNL1        0.0206
     12 C         141.2069  142.3701  169.7341 C.ar    1  UNL1        0.0016
     13 C         141.7503  142.4185  168.3369 C.ar    1  UNL1        0.0016
     14 C         141.1626  141.5397  167.2727 C.ar    1  UNL1        0.0191
     15 C         140.0315  140.6126  167.6059 C.ar    1  UNL1        0.0826
     16 N         139.2556  139.6360  166.7728 N.ar    1  UNL1       -0.2936
     17 C         140.0962  138.5314  160.9355 C.2     1  UNL1        0.2491
     18 O         139.0523  137.7893  160.1547 O.2     1  UNL1       -0.2699
     19 N         141.3502  138.9972  160.2570 N.am    1  UNL1       -0.2745
     20 C         141.5603  138.7210  158.7976 C.3     1  UNL1        0.1151
     21 C         142.3941  139.7393  161.0378 C.3     1  UNL1        0.0930
     22 C         143.8283  139.3316  161.2015 C.3     1  UNL1        0.0386
     23 C         144.5076  140.3596  162.0569 C.3     1  UNL1        0.0738
     24 N         143.4933  141.4027  162.4218 N.3     1  UNL1       -0.2725
     25 C         142.1870  141.0193  161.7919 C.3     1  UNL1        0.0921
     26 C         143.7416  142.6161  163.2679 C.3     1  UNL1        0.0575
     27 C         144.3080  142.4645  164.6486 C.3     1  UNL1        0.0160
     28 C         144.5564  143.6778  165.4948 C.3     1  UNL1        0.0014
     29 C         144.2383  145.0429  164.9603 C.3     1  UNL1        0.0001
     30 C         143.6719  145.1945  163.5797 C.3     1  UNL1        0.0014
     31 C         143.4236  143.9811  162.7335 C.3     1  UNL1        0.0160
@<TRIPOS>BOND
     1     7     8    1
     2     8     9   ar
     3     9    10   ar
     4    10    11   ar
     5    11    12   ar
     6    12    13   ar
     7    13    14   ar
     8    14    15   ar
     9    15    16   ar
    10    16     1    1
    11     1     2   ar
    12     2     3   ar
    13     3     4   ar
    14     4    17    1
    15    17    18    2
    16    17    19   am
    17    19    20    1
    18    21    19    1
    19    21    22    1
    20    22    23    1
    21    23    24    1
    22    24    26    1
    23    26    27    1
    24    27    28    1
    25    28    29    1
    26    29    30    1
    27    30    31    1
    28    24    25    1
    29     4     5   ar
    30     5     6   ar
    31    16     8   ar
    32     6     1   ar
    33    15    10   ar
    34    25    21    1
    35    31    26    1
@<TRIPOS>MOLECULE
*****
 31 35 0 0 0
SMALL
GASTEIGER

@<TRIPOS>ATOM
      1 C         138.9972  138.9220  162.7677 C.ar    1  UNL1        0.0651
      2 C         138.3446  140.1257  163.3800 C.ar    1  UNL1        0.0177
      3 C         138.0633  140.1585  164.8531 C.ar    1  UNL1        0.0060
      4 C         138.4346  138.9875  165.7138 C.ar    1  UNL1        0.0537
      5 C         139.0873  137.7838  165.1015 C.ar    1  UNL1        0.0060
      6 C         139.3687  137.7510  163.6284 C.ar    1  UNL1        0.0177
      7 C         136.9142  139.7557  160.3980 C.3     1  UNL1        0.0722
      8 C         138.3211  139.2725  160.2055 C.ar    1  UNL1        0.1246
      9 N         139.0176  139.0875  158.8899 N.ar    1  UNL1       -0.2306
     10 C         140.4055  138.5900  159.1660 C.ar    1  UNL1        0.0986
     11 C         141.5432  138.2328  158.2562 C.ar    1  UNL1        0.0206
     12 C         142.8422  137.7530  158.8325 C.ar    1  UNL1        0.0016
     13 C         143.0035  137.6305  160.3188 C.ar    1  UNL1        0.0016
     14 C         141.8658  137.9877  161.2287 C.ar    1  UNL1        0.0191
     15 C         140.5668  138.4675  160.6523 C.ar    1  UNL1        0.0826
     16 N         139.2786  138.8893  161.2947 N.ar    1  UNL1       -0.2936
     17 C         138.1533  139.0203  167.1868 C.2     1  UNL1        0.2491
     18 O         136.9361  138.3351  167.7332 O.2     1  UNL1       -0.2699
     19 N         139.0893  139.7383  168.1133 N.am    1  UNL1       -0.2745
     20 C         138.8079  139.7711  169.5864 C.3     1  UNL1        0.1151
     21 C         140.3065  140.4236  167.5668 C.3     1  UNL1        0.0930
     22 C         141.7305  140.0875  167.8974 C.3     1  UNL1        0.0386
     23 C         142.6176  141.0214  167.1287 C.3     1  UNL1        0.0738
     24 N         141.7419  141.9346  166.3230 N.3     1  UNL1       -0.2725
     25 C         140.3135  141.5651  166.5938 C.3     1  UNL1        0.0921
     26 C         142.2120  143.0257  165.4073 C.3     1  UNL1        0.0575
     27 C         141.2136  143.8959  164.7030 C.3     1  UNL1        0.0160
     28 C         141.6835  144.9870  163.7874 C.3     1  UNL1        0.0014
     29 C         143.1521  145.2080  163.5759 C.3     1  UNL1        0.0001
     30 C         144.1505  144.3379  164.2802 C.3     1  UNL1        0.0014
     31 C         143.6804  143.2468  165.1959 C.3     1  UNL1        0.0160
@<TRIPOS>BOND
     1     7     8    1
     2     8     9   ar
     3     9    10   ar
     4    10    11   ar
     5    11    12   ar
     6    12    13   ar
     7    13    14   ar
     8    14    15   ar
     9    15    16   ar
    10    16     1    1
    11     1     2   ar
    12     2     3   ar
    13     3     4   ar
    14     4    17    1
    15    17    18    2
    16    17    19   am
    17    19    20    1
    18    21    19    1
    19    21    22    1
    20    22    23    1
    21    23    24    1
    22    24    26    1
    23    26    27    1
    24    27    28    1
    25    28    29    1
    26    29    30    1
    27    30    31    1
    28    24    25    1
    29     4     5   ar
    30     5     6   ar
    31    16     8   ar
    32     6     1   ar
    33    15    10   ar
    34    25    21    1
    35    31    26    1
@<TRIPOS>MOLECULE
*****
 31 35 0 0 0
SMALL
GASTEIGER

@<TRIPOS>ATOM
      1 C         138.7285  139.8450  165.0159 C.ar    1  UNL1        0.0651
      2 C         139.0723  138.5818  164.2839 C.ar    1  UNL1        0.0177
      3 C         138.8787  138.4991  162.7987 C.ar    1  UNL1        0.0060
      4 C         138.3412  139.6797  162.0456 C.ar    1  UNL1        0.0537
      5 C         137.9973  140.9430  162.7776 C.ar    1  UNL1        0.0060
      6 C         138.1910  141.0257  164.2627 C.ar    1  UNL1        0.0177
      7 C         137.1690  138.0566  167.2562 C.3     1  UNL1        0.0722
      8 C         138.2053  139.1057  167.5308 C.ar    1  UNL1        0.1246
      9 N         138.7068  139.5169  168.8833 N.ar    1  UNL1       -0.2306
     10 C         139.7336  140.5931  168.6895 C.ar    1  UNL1        0.0986
     11 C         140.5645  141.3747  169.6635 C.ar    1  UNL1        0.0206
     12 C         141.5286  142.4101  169.1651 C.ar    1  UNL1        0.0016
     13 C         141.6617  142.6640  167.6927 C.ar    1  UNL1        0.0016
     14 C         140.8307  141.8825  166.7188 C.ar    1  UNL1        0.0191
     15 C         139.8667  140.8470  167.2172 C.ar    1  UNL1        0.0826
     16 N         138.9222  139.9277  166.5011 N.ar    1  UNL1       -0.2936
     17 C         138.1475  139.5970  160.5604 C.2     1  UNL1        0.2491
     18 O         136.7650  139.4853  159.9895 O.2     1  UNL1       -0.2699
     19 N         139.3364  139.6260  159.6463 N.am    1  UNL1       -0.2745
     20 C         139.1427  139.5433  158.1611 C.3     1  UNL1        0.1151
     21 C         140.7190  139.7378  160.2173 C.3     1  UNL1        0.0930
     22 C         141.8975  138.8874  159.8461 C.3     1  UNL1        0.0386
     23 C         143.0726  139.3435  160.6591 C.3     1  UNL1        0.0738
     24 N         142.6204  140.4758  161.5328 N.3     1  UNL1       -0.2725
     25 C         141.1657  140.7195  161.2597 C.3     1  UNL1        0.0921
     26 C         143.4731  141.2317  162.5082 C.3     1  UNL1        0.0575
     27 C         142.9261  142.4458  163.1988 C.3     1  UNL1        0.0160
     28 C         143.7787  143.2017  164.1743 C.3     1  UNL1        0.0014
     29 C         145.1784  142.7436  164.4592 C.3     1  UNL1        0.0001
     30 C         145.7253  141.5296  163.7686 C.3     1  UNL1        0.0014
     31 C         144.8727  140.7736  162.7931 C.3     1  UNL1        0.0160
@<TRIPOS>BOND
     1     7     8    1
     2     8     9   ar
     3     9    10   ar
     4    10    11   ar
     5    11    12   ar
     6    12    13   ar
     7    13    14   ar
     8    14    15   ar
     9    15    16   ar
    10    16     1    1
    11     1     2   ar
    12     2     3   ar
    13     3     4   ar
    14     4    17    1
    15    17    18    2
    16    17    19   am
    17    19    20    1
    18    21    19    1
    19    21    22    1
    20    22    23    1
    21    23    24    1
    22    24    26    1
    23    26    27    1
    24    27    28    1
    25    28    29    1
    26    29    30    1
    27    30    31    1
    28    24    25    1
    29     4     5   ar
    30     5     6   ar
    31    16     8   ar
    32     6     1   ar
    33    15    10   ar
    34    25    21    1
    35    31    26    1
@<TRIPOS>MOLECULE
*****
 31 35 0 0 0
SMALL
GASTEIGER

@<TRIPOS>ATOM
      1 C         142.9187  139.7984  164.8991 C.ar    1  UNL1        0.0651
      2 C         141.9698  139.0502  164.0106 C.ar    1  UNL1        0.0177
      3 C         142.1540  139.0802  162.5222 C.ar    1  UNL1        0.0060
      4 C         143.2873  139.8584  161.9223 C.ar    1  UNL1        0.0537
      5 C         144.2364  140.6067  162.8108 C.ar    1  UNL1        0.0060
      6 C         144.0521  140.5767  164.2991 C.ar    1  UNL1        0.0177
      7 C         144.1312  137.5566  166.9372 C.3     1  UNL1        0.0722
      8 C         143.2918  138.7380  167.3242 C.ar    1  UNL1        0.1246
      9 N         142.8623  139.0963  168.7160 N.ar    1  UNL1       -0.2306
     10 C         142.0396  140.3482  168.6394 C.ar    1  UNL1        0.0986
     11 C         141.3521  141.1636  169.6941 C.ar    1  UNL1        0.0206
     12 C         140.5857  142.3943  169.3097 C.ar    1  UNL1        0.0016
     13 C         140.5067  142.8097  167.8705 C.ar    1  UNL1        0.0016
     14 C         141.1941  141.9943  166.8158 C.ar    1  UNL1        0.0191
     15 C         141.9606  140.7636  167.2002 C.ar    1  UNL1        0.0826
     16 N         142.7345  139.7684  166.3874 N.ar    1  UNL1       -0.2936
     17 C         143.4715  139.8884  160.4340 C.2     1  UNL1        0.2491
     18 O         144.1534  138.7470  159.7396 O.2     1  UNL1       -0.2699
     19 N         142.9739  141.0598  159.6401 N.am    1  UNL1       -0.2745
     20 C         143.1582  141.0897  158.1518 C.3     1  UNL1        0.1151
     21 C         142.2921  142.2011  160.3346 C.3     1  UNL1        0.0930
     22 C         142.5513  143.6593  160.0968 C.3     1  UNL1        0.0386
     23 C         141.6507  144.4441  161.0040 C.3     1  UNL1        0.0738
     24 N         140.8349  143.4711  161.8025 N.3     1  UNL1       -0.2725
     25 C         141.2313  142.0848  161.3887 C.3     1  UNL1        0.0921
     26 C         139.8038  143.8225  162.8336 C.3     1  UNL1        0.0575
     27 C         138.3621  143.4810  162.5994 C.3     1  UNL1        0.0160
     28 C         137.3310  143.8324  163.6304 C.3     1  UNL1        0.0014
     29 C         137.7415  144.5254  164.8959 C.3     1  UNL1        0.0001
     30 C         139.1832  144.8669  165.1302 C.3     1  UNL1        0.0014
     31 C         140.2143  144.5154  164.0990 C.3     1  UNL1        0.0160
@<TRIPOS>BOND
     1     7     8    1
     2     8     9   ar
     3     9    10   ar
     4    10    11   ar
     5    11    12   ar
     6    12    13   ar
     7    13    14   ar
     8    14    15   ar
     9    15    16   ar
    10    16     1    1
    11     1     2   ar
    12     2     3   ar
    13     3     4   ar
    14     4    17    1
    15    17    18    2
    16    17    19   am
    17    19    20    1
    18    21    19    1
    19    21    22    1
    20    22    23    1
    21    23    24    1
    22    24    26    1
    23    26    27    1
    24    27    28    1
    25    28    29    1
    26    29    30    1
    27    30    31    1
    28    24    25    1
    29     4     5   ar
    30     5     6   ar
    31    16     8   ar
    32     6     1   ar
    33    15    10   ar
    34    25    21    1
    35    31    26    1
@<TRIPOS>MOLECULE
*****
 31 35 0 0 0
SMALL
GASTEIGER

@<TRIPOS>ATOM
      1 C         142.3605  139.1791  164.7942 C.ar    1  UNL1        0.0651
      2 C         143.2261  139.8979  163.8023 C.ar    1  UNL1        0.0177
      3 C         143.1414  139.5539  162.3448 C.ar    1  UNL1        0.0060
      4 C         142.1911  138.4909  161.8791 C.ar    1  UNL1        0.0537
      5 C         141.3254  137.7720  162.8709 C.ar    1  UNL1        0.0060
      6 C         141.4101  138.1161  164.3285 C.ar    1  UNL1        0.0177
      7 C         144.0241  137.5244  167.0622 C.3     1  UNL1        0.0722
      8 C         143.2099  138.7626  167.2942 C.ar    1  UNL1        0.1246
      9 N         143.0173  139.4576  168.6094 N.ar    1  UNL1       -0.2306
     10 C         142.1336  140.6478  168.3798 C.ar    1  UNL1        0.0986
     11 C         141.6053  141.6998  169.3093 C.ar    1  UNL1        0.0206
     12 C         140.7233  142.7923  168.7817 C.ar    1  UNL1        0.0016
     13 C         140.3697  142.8329  167.3245 C.ar    1  UNL1        0.0016
     14 C         140.8981  141.7808  166.3950 C.ar    1  UNL1        0.0191
     15 C         141.7800  140.6883  166.9227 C.ar    1  UNL1        0.0826
     16 N         142.4452  139.5232  166.2517 N.ar    1  UNL1       -0.2936
     17 C         142.1064  138.1469  160.4215 C.2     1  UNL1        0.2491
     18 O         143.0702  137.1640  159.8258 O.2     1  UNL1       -0.2699
     19 N         141.0579  138.7857  159.5598 N.am    1  UNL1       -0.2745
     20 C         140.9733  138.4415  158.1022 C.3     1  UNL1        0.1151
     21 C         140.0941  139.7685  160.1556 C.3     1  UNL1        0.0930
     22 C         138.6564  139.9414  159.7644 C.3     1  UNL1        0.0386
     23 C         138.0725  141.0308  160.6142 C.3     1  UNL1        0.0738
     24 N         139.1493  141.5312  161.5307 N.3     1  UNL1       -0.2725
     25 C         140.3988  140.7511  161.2472 C.3     1  UNL1        0.0921
     26 C         139.0025  142.6206  162.5514 C.3     1  UNL1        0.0575
     27 C         137.8217  142.6275  163.4764 C.3     1  UNL1        0.0160
     28 C         137.6748  143.7167  164.4970 C.3     1  UNL1        0.0014
     29 C         138.7088  144.7992  164.5928 C.3     1  UNL1        0.0001
     30 C         139.8897  144.7923  163.6678 C.3     1  UNL1        0.0014
     31 C         140.0365  143.7030  162.6471 C.3     1  UNL1        0.0160
@<TRIPOS>BOND
     1     7     8    1
     2     8     9   ar
     3     9    10   ar
     4    10    11   ar
     5    11    12   ar
     6    12    13   ar
     7    13    14   ar
     8    14    15   ar
     9    15    16   ar
    10    16     1    1
    11     1     2   ar
    12     2     3   ar
    13     3     4   ar
    14     4    17    1
    15    17    18    2
    16    17    19   am
    17    19    20    1
    18    21    19    1
    19    21    22    1
    20    22    23    1
    21    23    24    1
    22    24    26    1
    23    26    27    1
    24    27    28    1
    25    28    29    1
    26    29    30    1
    27    30    31    1
    28    24    25    1
    29     4     5   ar
    30     5     6   ar
    31    16     8   ar
    32     6     1   ar
    33    15    10   ar
    34    25    21    1
    35    31    26    1
@<TRIPOS>MOLECULE
*****
 31 35 0 0 0
SMALL
GASTEIGER

@<TRIPOS>ATOM
      1 C         143.7551  139.7344  162.4477 C.ar    1  UNL1        0.0651
      2 C         142.6114  138.8931  162.9314 C.ar    1  UNL1        0.0177
      3 C         142.5760  138.4225  164.3552 C.ar    1  UNL1        0.0060
      4 C         143.6844  138.7933  165.2955 C.ar    1  UNL1        0.0537
      5 C         144.8281  139.6346  164.8118 C.ar    1  UNL1        0.0060
      6 C         144.8635  140.1052  163.3880 C.ar    1  UNL1        0.0177
      7 C         144.6111  142.7157  161.4335 C.3     1  UNL1        0.0722
      8 C         144.1840  141.5753  160.5577 C.ar    1  UNL1        0.1246
      9 N         144.0753  141.6050  159.0620 N.ar    1  UNL1       -0.2306
     10 C         143.6146  140.2531  158.6037 C.ar    1  UNL1        0.0986
     11 C         143.3327  139.6981  157.2390 C.ar    1  UNL1        0.0206
     12 C         142.8748  138.2779  157.0868 C.ar    1  UNL1        0.0016
     13 C         142.6988  137.4126  158.2994 C.ar    1  UNL1        0.0016
     14 C         142.9807  137.9676  159.6641 C.ar    1  UNL1        0.0191
     15 C         143.4386  139.3878  159.8162 C.ar    1  UNL1        0.0826
     16 N         143.7905  140.2050  161.0239 N.ar    1  UNL1       -0.2936
     17 C         143.6490  138.3227  166.7193 C.2     1  UNL1        0.2491
     18 O         144.3378  137.0473  167.1049 O.2     1  UNL1       -0.2699
     19 N         142.9247  139.1276  167.7574 N.am    1  UNL1       -0.2745
     20 C         142.8893  138.6569  169.1812 C.3     1  UNL1        0.1151
     21 C         142.2358  140.4029  167.3717 C.3     1  UNL1        0.0930
     22 C         142.5829  141.7764  167.8647 C.3     1  UNL1        0.0386
     23 C         141.6405  142.7511  167.2229 C.3     1  UNL1        0.0738
     24 N         140.7110  141.9801  166.3333 N.3     1  UNL1       -0.2725
     25 C         141.0790  140.5288  166.4252 C.3     1  UNL1        0.0921
     26 C         139.6074  142.5587  165.4983 C.3     1  UNL1        0.0575
     27 C         139.3873  144.0422  165.4700 C.3     1  UNL1        0.0160
     28 C         138.2837  144.6209  164.6351 C.3     1  UNL1        0.0014
     29 C         137.4001  143.7161  163.8283 C.3     1  UNL1        0.0001
     30 C         137.6203  142.2326  163.8567 C.3     1  UNL1        0.0014
     31 C         138.7239  141.6540  164.6916 C.3     1  UNL1        0.0160
@<TRIPOS>BOND
     1     7     8    1
     2     8     9   ar
     3     9    10   ar
     4    10    11   ar
     5    11    12   ar
     6    12    13   ar
     7    13    14   ar
     8    14    15   ar
     9    15    16   ar
    10    16     1    1
    11     1     2   ar
    12     2     3   ar
    13     3     4   ar
    14     4    17    1
    15    17    18    2
    16    17    19   am
    17    19    20    1
    18    21    19    1
    19    21    22    1
    20    22    23    1
    21    23    24    1
    22    24    26    1
    23    26    27    1
    24    27    28    1
    25    28    29    1
    26    29    30    1
    27    30    31    1
    28    24    25    1
    29     4     5   ar
    30     5     6   ar
    31    16     8   ar
    32     6     1   ar
    33    15    10   ar
    34    25    21    1
    35    31    26    1
@<TRIPOS>MOLECULE
*****
 31 35 0 0 0
SMALL
GASTEIGER

@<TRIPOS>ATOM
      1 C         139.7057  142.3608  165.3394 C.ar    1  UNL1        0.0651
      2 C         138.4707  143.0052  164.7833 C.ar    1  UNL1        0.0177
      3 C         138.5751  143.9498  163.6228 C.ar    1  UNL1        0.0060
      4 C         139.9147  144.2500  163.0182 C.ar    1  UNL1        0.0537
      5 C         141.1498  143.6056  163.5743 C.ar    1  UNL1        0.0060
      6 C         141.0454  142.6610  164.7349 C.ar    1  UNL1        0.0177
      7 C         138.3947  139.3732  165.2691 C.3     1  UNL1        0.0722
      8 C         138.9987  140.0430  166.4677 C.ar    1  UNL1        0.1246
      9 N         139.1061  139.4572  167.8443 N.ar    1  UNL1       -0.2306
     10 C         139.7752  140.4684  168.7275 C.ar    1  UNL1        0.0986
     11 C         140.1452  140.4431  170.1809 C.ar    1  UNL1        0.0206
     12 C         140.8213  141.6285  170.8034 C.ar    1  UNL1        0.0016
     13 C         141.1274  142.8393  169.9725 C.ar    1  UNL1        0.0016
     14 C         140.7573  142.8646  168.5191 C.ar    1  UNL1        0.0191
     15 C         140.0812  141.6792  167.8966 C.ar    1  UNL1        0.0826
     16 N         139.6013  141.4163  166.5000 N.ar    1  UNL1       -0.2936
     17 C         140.0191  145.1945  161.8577 C.2     1  UNL1        0.2491
     18 O         140.1320  146.6705  162.0999 O.2     1  UNL1       -0.2699
     19 N         140.0106  144.6631  160.4550 N.am    1  UNL1       -0.2745
     20 C         140.1151  145.6077  159.2945 C.3     1  UNL1        0.1151
     21 C         139.8977  143.1871  160.2129 C.3     1  UNL1        0.0930
     22 C         138.6503  142.3647  160.3457 C.3     1  UNL1        0.0386
     23 C         138.9940  140.9437  160.0104 C.3     1  UNL1        0.0738
     24 N         140.4539  140.8877  159.6704 N.3     1  UNL1       -0.2725
     25 C         141.0124  142.2742  159.7956 C.3     1  UNL1        0.0921
     26 C         141.2206  139.6607  159.2747 C.3     1  UNL1        0.0575
     27 C         142.1328  138.9953  160.2622 C.3     1  UNL1        0.0160
     28 C         142.8995  137.7684  159.8666 C.3     1  UNL1        0.0014
     29 C         142.7541  137.2067  158.4833 C.3     1  UNL1        0.0001
     30 C         141.8420  137.8721  157.4958 C.3     1  UNL1        0.0014
     31 C         141.0753  139.0991  157.8915 C.3     1  UNL1        0.0160
@<TRIPOS>BOND
     1     7     8    1
     2     8     9   ar
     3     9    10   ar
     4    10    11   ar
     5    11    12   ar
     6    12    13   ar
     7    13    14   ar
     8    14    15   ar
     9    15    16   ar
    10    16     1    1
    11     1     2   ar
    12     2     3   ar
    13     3     4   ar
    14     4    17    1
    15    17    18    2
    16    17    19   am
    17    19    20    1
    18    21    19    1
    19    21    22    1
    20    22    23    1
    21    23    24    1
    22    24    26    1
    23    26    27    1
    24    27    28    1
    25    28    29    1
    26    29    30    1
    27    30    31    1
    28    24    25    1
    29     4     5   ar
    30     5     6   ar
    31    16     8   ar
    32     6     1   ar
    33    15    10   ar
    34    25    21    1
    35    31    26    1
@<TRIPOS>MOLECULE
*****
 31 35 0 0 0
SMALL
GASTEIGER

@<TRIPOS>ATOM
      1 C         140.1663  142.2215  160.1859 C.ar    1  UNL1        0.0651
      2 C         141.5862  141.7532  160.0659 C.ar    1  UNL1        0.0177
      3 C         142.6293  142.2715  161.0110 C.ar    1  UNL1        0.0060
      4 C         142.2525  143.2582  162.0761 C.ar    1  UNL1        0.0537
      5 C         140.8326  143.7265  162.1962 C.ar    1  UNL1        0.0060
      6 C         139.7894  143.2082  161.2511 C.ar    1  UNL1        0.0177
      7 C         138.4203  139.4908  160.5661 C.3     1  UNL1        0.0722
      8 C         138.3206  140.4480  159.4156 C.ar    1  UNL1        0.1246
      9 N         137.4009  140.3182  158.2378 N.ar    1  UNL1       -0.2306
     10 C         137.6349  141.4931  157.3351 C.ar    1  UNL1        0.0986
     11 C         137.0164  141.8941  156.0288 C.ar    1  UNL1        0.0206
     12 C         137.4622  143.1511  155.3424 C.ar    1  UNL1        0.0016
     13 C         138.5266  144.0071  155.9623 C.ar    1  UNL1        0.0016
     14 C         139.1452  143.6061  157.2686 C.ar    1  UNL1        0.0191
     15 C         138.6994  142.3491  157.9550 C.ar    1  UNL1        0.0826
     16 N         139.1231  141.7032  159.2408 N.ar    1  UNL1       -0.2936
     17 C         143.2957  143.7765  163.0212 C.2     1  UNL1        0.2491
     18 O         143.9462  145.1036  162.7656 O.2     1  UNL1       -0.2699
     19 N         143.6882  142.9676  164.2219 N.am    1  UNL1       -0.2745
     20 C         144.7314  143.4860  165.1670 C.3     1  UNL1        0.1151
     21 C         143.0376  141.6404  164.4775 C.3     1  UNL1        0.0930
     22 C         143.6326  140.2955  164.1824 C.3     1  UNL1        0.0386
     23 C         142.6406  139.2490  164.5955 C.3     1  UNL1        0.0738
     24 N         141.4325  139.9472  165.1460 N.3     1  UNL1       -0.2725
     25 C         141.6779  141.4252  165.0730 C.3     1  UNL1        0.0921
     26 C         140.1961  139.2838  165.6762 C.3     1  UNL1        0.0575
     27 C         139.6885  138.0244  165.0389 C.3     1  UNL1        0.0160
     28 C         138.4521  137.3610  165.5691 C.3     1  UNL1        0.0014
     29 C         137.7231  137.9570  166.7368 C.3     1  UNL1        0.0001
     30 C         138.2307  139.2165  167.3742 C.3     1  UNL1        0.0014
     31 C         139.4671  139.8798  166.8439 C.3     1  UNL1        0.0160
@<TRIPOS>BOND
     1     7     8    1
     2     8     9   ar
     3     9    10   ar
     4    10    11   ar
     5    11    12   ar
     6    12    13   ar
     7    13    14   ar
     8    14    15   ar
     9    15    16   ar
    10    16     1    1
    11     1     2   ar
    12     2     3   ar
    13     3     4   ar
    14     4    17    1
    15    17    18    2
    16    17    19   am
    17    19    20    1
    18    21    19    1
    19    21    22    1
    20    22    23    1
    21    23    24    1
    22    24    26    1
    23    26    27    1
    24    27    28    1
    25    28    29    1
    26    29    30    1
    27    30    31    1
    28    24    25    1
    29     4     5   ar
    30     5     6   ar
    31    16     8   ar
    32     6     1   ar
    33    15    10   ar
    34    25    21    1
    35    31    26    1
