@<TRIPOS>MOLECULE
*****
 24 26 0 0 0
SMALL
GASTEIGER

@<TRIPOS>ATOM
      1 C         139.3159  138.1229  161.3606 C.3     1  UNL1        0.0902
      2 N         139.7588  137.7011  162.7303 N.3     1  UNL1       -0.2639
      3 C         138.7753  137.6781  163.8626 C.3     1  UNL1        0.0992
      4 C         139.0630  138.4412  165.1215 C.2     1  UNL1       -0.0088
      5 C         139.4122  139.8983  165.0520 C.2     1  UNL1       -0.0032
      6 C         139.6999  140.6615  166.3109 C.ar    1  UNL1       -0.0003
      7 C         140.1628  142.0862  166.2352 C.ar    1  UNL1       -0.0002
      8 C         140.4505  142.8493  167.4941 C.ar    1  UNL1        0.0011
      9 C         140.2752  142.1878  168.8288 C.ar    1  UNL1        0.0436
     10 C         139.8123  140.7630  168.9047 C.ar    1  UNL1        0.0011
     11 C         139.5246  139.9998  167.6458 C.ar    1  UNL1       -0.0002
     12 C         140.5629  142.9509  170.0878 C.3     1  UNL1        0.3410
     13 F         140.8600  144.4198  170.0231 F       1  UNL1       -0.1933
     14 F         140.5534  142.2452  171.4113 F       1  UNL1       -0.1933
     15 C         141.1852  137.3023  162.9676 C.3     1  UNL1        0.0994
     16 C         142.2858  138.3032  162.7747 C.ar    1  UNL1       -0.0062
     17 C         143.0115  138.3767  161.4641 C.ar    1  UNL1        0.0002
     18 C         144.1120  139.3776  161.2712 C.ar    1  UNL1        0.0363
     19 C         144.4868  140.3049  162.3890 C.ar    1  UNL1        0.1346
     20 C         143.7611  140.2314  163.6997 C.ar    1  UNL1        0.0153
     21 C         142.6606  139.2306  163.8926 C.ar    1  UNL1       -0.0041
     22 C         144.3470  141.2674  164.6127 C.3     1  UNL1        0.0767
     23 C         145.4347  141.9812  163.8662 C.3     1  UNL1        0.2102
     24 O         145.5212  141.3863  162.4919 O.3     1  UNL1       -0.4754
@<TRIPOS>BOND
     1     1     2    1
     2     2     3    1
     3     3     4    1
     4     4     5    2
     5     5     6    1
     6     6     7   ar
     7     7     8   ar
     8     8     9   ar
     9     9    12    1
    10    12    13    1
    11    12    14    1
    12     9    10   ar
    13    10    11   ar
    14     2    15    1
    15    15    16    1
    16    16    17   ar
    17    17    18   ar
    18    18    19   ar
    19    19    20   ar
    20    20    21   ar
    21    20    22    1
    22    22    23    1
    23    23    24    1
    24    11     6   ar
    25    21    16   ar
    26    24    19    1
@<TRIPOS>MOLECULE
*****
 24 26 0 0 0
SMALL
GASTEIGER

@<TRIPOS>ATOM
      1 C         139.4561  138.1598  160.8690 C.3     1  UNL1        0.0902
      2 N         138.6873  138.7773  161.9993 N.3     1  UNL1       -0.2639
      3 C         138.9313  138.3240  163.4082 C.3     1  UNL1        0.0992
      4 C         139.5127  139.2751  164.4120 C.2     1  UNL1       -0.0088
      5 C         138.8185  139.4991  165.7227 C.2     1  UNL1       -0.0032
      6 C         139.3999  140.4501  166.7264 C.ar    1  UNL1       -0.0003
      7 C         139.8874  141.7989  166.2870 C.ar    1  UNL1       -0.0002
      8 C         140.4688  142.7499  167.2907 C.ar    1  UNL1        0.0011
      9 C         140.5627  142.3522  168.7340 C.ar    1  UNL1        0.0436
     10 C         140.0752  141.0035  169.1735 C.ar    1  UNL1        0.0011
     11 C         139.4938  140.0524  168.1697 C.ar    1  UNL1       -0.0002
     12 C         141.1441  143.3033  169.7377 C.3     1  UNL1        0.3410
     13 F         140.5108  144.6458  169.9533 F       1  UNL1       -0.1933
     14 F         142.3587  142.9117  170.5259 F       1  UNL1       -0.1933
     15 C         137.6744  139.8480  161.7208 C.3     1  UNL1        0.0994
     16 C         137.9904  141.2799  162.0369 C.ar    1  UNL1       -0.0062
     17 C         137.3497  141.9462  163.2181 C.ar    1  UNL1        0.0002
     18 C         137.6657  143.3781  163.5342 C.ar    1  UNL1        0.0363
     19 C         138.6224  144.1436  162.6690 C.ar    1  UNL1        0.1346
     20 C         139.2632  143.4773  161.4877 C.ar    1  UNL1        0.0153
     21 C         138.9472  142.0454  161.1716 C.ar    1  UNL1       -0.0041
     22 C         140.1600  144.4779  160.8211 C.3     1  UNL1        0.0767
     23 C         140.0736  145.7627  161.5904 C.3     1  UNL1        0.2102
     24 O         139.1233  145.5561  162.7325 O.3     1  UNL1       -0.4754
@<TRIPOS>BOND
     1     1     2    1
     2     2     3    1
     3     3     4    1
     4     4     5    2
     5     5     6    1
     6     6     7   ar
     7     7     8   ar
     8     8     9   ar
     9     9    12    1
    10    12    13    1
    11    12    14    1
    12     9    10   ar
    13    10    11   ar
    14     2    15    1
    15    15    16    1
    16    16    17   ar
    17    17    18   ar
    18    18    19   ar
    19    19    20   ar
    20    20    21   ar
    21    20    22    1
    22    22    23    1
    23    23    24    1
    24    11     6   ar
    25    21    16   ar
    26    24    19    1
@<TRIPOS>MOLECULE
*****
 24 26 0 0 0
SMALL
GASTEIGER

@<TRIPOS>ATOM
      1 C         144.6450  142.8437  161.4629 C.3     1  UNL1        0.0902
      2 N         144.4538  143.4647  162.8148 N.3     1  UNL1       -0.2639
      3 C         145.0573  142.8212  164.0279 C.3     1  UNL1        0.0992
      4 C         144.2228  142.6039  165.2552 C.2     1  UNL1       -0.0088
      5 C         143.1944  141.5122  165.2794 C.2     1  UNL1       -0.0032
      6 C         142.3599  141.2950  166.5068 C.ar    1  UNL1       -0.0003
      7 C         141.3462  142.3220  166.9160 C.ar    1  UNL1       -0.0002
      8 C         140.5117  142.1047  168.1433 C.ar    1  UNL1        0.0011
      9 C         140.6909  140.8604  168.9615 C.ar    1  UNL1        0.0436
     10 C         141.7046  139.8333  168.5523 C.ar    1  UNL1        0.0011
     11 C         142.5391  140.0505  167.3250 C.ar    1  UNL1       -0.0002
     12 C         139.8564  140.6431  170.1889 C.3     1  UNL1        0.3410
     13 F         140.5179  140.4514  171.5214 F       1  UNL1       -0.1933
     14 F         138.3603  140.6176  170.0836 F       1  UNL1       -0.1933
     15 C         143.6589  144.7292  162.9537 C.3     1  UNL1        0.0994
     16 C         142.1598  144.6784  162.9375 C.ar    1  UNL1       -0.0062
     17 C         141.4230  144.6922  161.6311 C.ar    1  UNL1        0.0002
     18 C         139.9239  144.6414  161.6150 C.ar    1  UNL1        0.0363
     19 C         139.1617  144.5768  162.9053 C.ar    1  UNL1        0.1346
     20 C         139.8986  144.5630  164.2117 C.ar    1  UNL1        0.0153
     21 C         141.3976  144.6138  164.2279 C.ar    1  UNL1       -0.0041
     22 C         138.8847  144.4954  165.3151 C.3     1  UNL1        0.0767
     23 C         137.5212  144.4674  164.6905 C.3     1  UNL1        0.2102
     24 O         137.6924  144.5177  163.2012 O.3     1  UNL1       -0.4754
@<TRIPOS>BOND
     1     1     2    1
     2     2     3    1
     3     3     4    1
     4     4     5    2
     5     5     6    1
     6     6     7   ar
     7     7     8   ar
     8     8     9   ar
     9     9    12    1
    10    12    13    1
    11    12    14    1
    12     9    10   ar
    13    10    11   ar
    14     2    15    1
    15    15    16    1
    16    16    17   ar
    17    17    18   ar
    18    18    19   ar
    19    19    20   ar
    20    20    21   ar
    21    20    22    1
    22    22    23    1
    23    23    24    1
    24    11     6   ar
    25    21    16   ar
    26    24    19    1
@<TRIPOS>MOLECULE
*****
 24 26 0 0 0
SMALL
GASTEIGER

@<TRIPOS>ATOM
      1 C         137.7265  142.8967  162.1551 C.3     1  UNL1        0.0902
      2 N         138.5330  143.9782  162.8106 N.3     1  UNL1       -0.2639
      3 C         138.1967  144.4255  164.2024 C.3     1  UNL1        0.0992
      4 C         139.1673  144.1886  165.3213 C.2     1  UNL1       -0.0088
      5 C         139.9226  142.8950  165.3977 C.2     1  UNL1       -0.0032
      6 C         140.8931  142.6581  166.5167 C.ar    1  UNL1       -0.0003
      7 C         142.3343  142.3749  166.2122 C.ar    1  UNL1       -0.0002
      8 C         143.3048  142.1381  167.3311 C.ar    1  UNL1        0.0011
      9 C         142.8341  142.1844  168.7546 C.ar    1  UNL1        0.0436
     10 C         141.3929  142.4676  169.0591 C.ar    1  UNL1        0.0011
     11 C         140.4224  142.7045  167.9402 C.ar    1  UNL1       -0.0002
     12 C         143.8047  141.9476  169.8735 C.3     1  UNL1        0.3410
     13 F         143.7163  140.6924  170.6899 F       1  UNL1       -0.1933
     14 F         144.8635  142.9660  170.1760 F       1  UNL1       -0.1933
     15 C         139.6756  144.6126  162.0745 C.3     1  UNL1        0.0994
     16 C         141.0877  144.2397  162.4168 C.ar    1  UNL1       -0.0062
     17 C         141.9671  145.2164  163.1395 C.ar    1  UNL1        0.0002
     18 C         143.3792  144.8436  163.4818 C.ar    1  UNL1        0.0363
     19 C         143.9117  143.4939  163.1012 C.ar    1  UNL1        0.1346
     20 C         143.0323  142.5171  162.3784 C.ar    1  UNL1        0.0153
     21 C         141.6203  142.8900  162.0362 C.ar    1  UNL1       -0.0041
     22 C         143.8282  141.2694  162.1340 C.3     1  UNL1        0.0767
     23 C         145.1996  141.4751  162.7058 C.3     1  UNL1        0.2102
     24 O         145.2513  142.8499  163.3036 O.3     1  UNL1       -0.4754
@<TRIPOS>BOND
     1     1     2    1
     2     2     3    1
     3     3     4    1
     4     4     5    2
     5     5     6    1
     6     6     7   ar
     7     7     8   ar
     8     8     9   ar
     9     9    12    1
    10    12    13    1
    11    12    14    1
    12     9    10   ar
    13    10    11   ar
    14     2    15    1
    15    15    16    1
    16    16    17   ar
    17    17    18   ar
    18    18    19   ar
    19    19    20   ar
    20    20    21   ar
    21    20    22    1
    22    22    23    1
    23    23    24    1
    24    11     6   ar
    25    21    16   ar
    26    24    19    1
@<TRIPOS>MOLECULE
*****
 24 26 0 0 0
SMALL
GASTEIGER

@<TRIPOS>ATOM
      1 C         141.4264  141.4552  171.2114 C.3     1  UNL1        0.0902
      2 N         141.0711  140.5748  170.0501 N.3     1  UNL1       -0.2639
      3 C         139.6420  140.4529  169.6110 C.3     1  UNL1        0.0992
      4 C         139.3150  139.8309  168.2858 C.2     1  UNL1       -0.0088
      5 C         139.4406  140.6374  167.0274 C.2     1  UNL1       -0.0032
      6 C         139.1136  140.0154  165.7021 C.ar    1  UNL1       -0.0003
      7 C         139.5935  138.6302  165.3849 C.ar    1  UNL1       -0.0002
      8 C         139.2665  138.0082  164.0597 C.ar    1  UNL1        0.0011
      9 C         138.4595  138.7715  163.0517 C.ar    1  UNL1        0.0436
     10 C         137.9796  140.1568  163.3688 C.ar    1  UNL1        0.0011
     11 C         138.3066  140.7788  164.6940 C.ar    1  UNL1       -0.0002
     12 C         138.1325  138.1495  161.7264 C.3     1  UNL1        0.3410
     13 F         139.2315  137.8259  160.7582 F       1  UNL1       -0.1933
     14 F         136.7065  137.8511  161.3695 F       1  UNL1       -0.1933
     15 C         142.1449  139.8162  169.3280 C.3     1  UNL1        0.0994
     16 C         142.6185  140.2834  167.9835 C.ar    1  UNL1       -0.0062
     17 C         142.7951  141.7491  167.7182 C.ar    1  UNL1        0.0002
     18 C         143.2686  142.2163  166.3738 C.ar    1  UNL1        0.0363
     19 C         143.5656  141.2177  165.2946 C.ar    1  UNL1        0.1346
     20 C         143.3889  139.7519  165.5598 C.ar    1  UNL1        0.0153
     21 C         142.9154  139.2847  166.9042 C.ar    1  UNL1       -0.0041
     22 C         143.7574  139.0071  164.3110 C.3     1  UNL1        0.0767
     23 C         144.1617  140.0126  163.2740 C.3     1  UNL1        0.2102
     24 O         144.0432  141.3788  163.8818 O.3     1  UNL1       -0.4754
@<TRIPOS>BOND
     1     1     2    1
     2     2     3    1
     3     3     4    1
     4     4     5    2
     5     5     6    1
     6     6     7   ar
     7     7     8   ar
     8     8     9   ar
     9     9    12    1
    10    12    13    1
    11    12    14    1
    12     9    10   ar
    13    10    11   ar
    14     2    15    1
    15    15    16    1
    16    16    17   ar
    17    17    18   ar
    18    18    19   ar
    19    19    20   ar
    20    20    21   ar
    21    20    22    1
    22    22    23    1
    23    23    24    1
    24    11     6   ar
    25    21    16   ar
    26    24    19    1
@<TRIPOS>MOLECULE
*****
 24 26 0 0 0
SMALL
GASTEIGER

@<TRIPOS>ATOM
      1 C         141.5240  137.9277  161.5612 C.3     1  UNL1        0.0902
      2 N         142.3563  138.1492  162.7893 N.3     1  UNL1       -0.2639
      3 C         141.8446  137.7143  164.1306 C.3     1  UNL1        0.0992
      4 C         141.3265  138.7330  165.1021 C.2     1  UNL1       -0.0088
      5 C         142.2330  139.2903  166.1592 C.2     1  UNL1       -0.0032
      6 C         141.7148  140.3090  167.1307 C.ar    1  UNL1       -0.0003
      7 C         141.4622  139.9237  168.5581 C.ar    1  UNL1       -0.0002
      8 C         140.9440  140.9424  169.5295 C.ar    1  UNL1        0.0011
      9 C         140.6785  142.3465  169.0736 C.ar    1  UNL1        0.0436
     10 C         140.9311  142.7319  167.6461 C.ar    1  UNL1        0.0011
     11 C         141.4493  141.7132  166.6746 C.ar    1  UNL1       -0.0002
     12 C         140.1603  143.3652  170.0450 C.3     1  UNL1        0.3410
     13 F         139.0798  142.9934  171.0167 F       1  UNL1       -0.1933
     14 F         140.7227  144.7558  170.0447 F       1  UNL1       -0.1933
     15 C         143.7003  138.8057  162.6762 C.3     1  UNL1        0.0994
     16 C         143.8787  140.2295  163.1137 C.ar    1  UNL1       -0.0062
     17 C         145.1596  140.6588  163.7655 C.ar    1  UNL1        0.0002
     18 C         145.3381  142.0824  164.2030 C.ar    1  UNL1        0.0363
     19 C         144.2356  143.0767  163.9887 C.ar    1  UNL1        0.1346
     20 C         142.9547  142.6474  163.3368 C.ar    1  UNL1        0.0153
     21 C         142.7762  141.2238  162.8993 C.ar    1  UNL1       -0.0041
     22 C         142.0515  143.8424  163.2579 C.3     1  UNL1        0.0767
     23 C         142.7742  145.0102  163.8609 C.3     1  UNL1        0.2102
     24 O         144.1241  144.5371  164.3126 O.3     1  UNL1       -0.4754
@<TRIPOS>BOND
     1     1     2    1
     2     2     3    1
     3     3     4    1
     4     4     5    2
     5     5     6    1
     6     6     7   ar
     7     7     8   ar
     8     8     9   ar
     9     9    12    1
    10    12    13    1
    11    12    14    1
    12     9    10   ar
    13    10    11   ar
    14     2    15    1
    15    15    16    1
    16    16    17   ar
    17    17    18   ar
    18    18    19   ar
    19    19    20   ar
    20    20    21   ar
    21    20    22    1
    22    22    23    1
    23    23    24    1
    24    11     6   ar
    25    21    16   ar
    26    24    19    1
@<TRIPOS>MOLECULE
*****
 24 26 0 0 0
SMALL
GASTEIGER

@<TRIPOS>ATOM
      1 C         141.7210  137.9693  161.2375 C.3     1  UNL1        0.0902
      2 N         140.6948  137.7188  162.3024 N.3     1  UNL1       -0.2639
      3 C         141.0989  137.0795  163.5978 C.3     1  UNL1        0.0992
      4 C         141.3337  137.9284  164.8120 C.2     1  UNL1       -0.0088
      5 C         142.2645  139.1023  164.7378 C.2     1  UNL1       -0.0032
      6 C         142.4993  139.9512  165.9520 C.ar    1  UNL1       -0.0003
      7 C         142.4434  139.3367  167.3191 C.ar    1  UNL1       -0.0002
      8 C         142.6782  140.1856  168.5332 C.ar    1  UNL1        0.0011
      9 C         142.9689  141.6491  168.3803 C.ar    1  UNL1        0.0436
     10 C         143.0249  142.2638  167.0132 C.ar    1  UNL1        0.0011
     11 C         142.7901  141.4149  165.7990 C.ar    1  UNL1       -0.0002
     12 C         143.2038  142.4980  169.5945 C.3     1  UNL1        0.3410
     13 F         142.0586  143.2263  170.2334 F       1  UNL1       -0.1933
     14 F         144.5838  142.6186  170.1698 F       1  UNL1       -0.1933
     15 C         139.2645  138.1076  162.0720 C.3     1  UNL1        0.0994
     16 C         138.8741  139.5559  162.0561 C.ar    1  UNL1       -0.0062
     17 C         138.6403  140.2553  160.7500 C.ar    1  UNL1        0.0002
     18 C         138.2500  141.7036  160.7340 C.ar    1  UNL1        0.0363
     19 C         138.0935  142.4524  162.0243 C.ar    1  UNL1        0.1346
     20 C         138.3273  141.7529  163.3305 C.ar    1  UNL1        0.0153
     21 C         138.7176  140.3047  163.3464 C.ar    1  UNL1       -0.0041
     22 C         138.0994  142.7432  164.4339 C.3     1  UNL1        0.0767
     23 C         137.7246  144.0546  163.8096 C.3     1  UNL1        0.2102
     24 O         137.7210  143.8749  162.3204 O.3     1  UNL1       -0.4754
@<TRIPOS>BOND
     1     1     2    1
     2     2     3    1
     3     3     4    1
     4     4     5    2
     5     5     6    1
     6     6     7   ar
     7     7     8   ar
     8     8     9   ar
     9     9    12    1
    10    12    13    1
    11    12    14    1
    12     9    10   ar
    13    10    11   ar
    14     2    15    1
    15    15    16    1
    16    16    17   ar
    17    17    18   ar
    18    18    19   ar
    19    19    20   ar
    20    20    21   ar
    21    20    22    1
    22    22    23    1
    23    23    24    1
    24    11     6   ar
    25    21    16   ar
    26    24    19    1
@<TRIPOS>MOLECULE
*****
 24 26 0 0 0
SMALL
GASTEIGER

@<TRIPOS>ATOM
      1 C         138.2112  138.5716  161.2970 C.3     1  UNL1        0.0902
      2 N         139.2475  138.0257  162.2341 N.3     1  UNL1       -0.2639
      3 C         138.8402  137.4992  163.5783 C.3     1  UNL1        0.0992
      4 C         139.6135  137.8901  164.8027 C.2     1  UNL1       -0.0088
      5 C         139.6215  139.3185  165.2604 C.2     1  UNL1       -0.0032
      6 C         140.3948  139.7094  166.4848 C.ar    1  UNL1       -0.0003
      7 C         141.8931  139.7640  166.4400 C.ar    1  UNL1       -0.0002
      8 C         142.6664  140.1550  167.6644 C.ar    1  UNL1        0.0011
      9 C         141.9413  140.4913  168.9337 C.ar    1  UNL1        0.0436
     10 C         140.4430  140.4368  168.9786 C.ar    1  UNL1        0.0011
     11 C         139.6697  140.0458  167.7542 C.ar    1  UNL1       -0.0002
     12 C         142.7147  140.8822  170.1581 C.3     1  UNL1        0.3410
     13 F         142.1671  140.5759  171.5206 F       1  UNL1       -0.1933
     14 F         144.0355  141.5795  170.0200 F       1  UNL1       -0.1933
     15 C         140.6910  138.0064  161.8270 C.3     1  UNL1        0.0994
     16 C         141.5896  139.1497  162.1956 C.ar    1  UNL1       -0.0062
     17 C         141.1847  140.5568  161.8704 C.ar    1  UNL1        0.0002
     18 C         142.0832  141.7000  162.2389 C.ar    1  UNL1        0.0363
     19 C         143.3866  141.4360  162.9327 C.ar    1  UNL1        0.1346
     20 C         143.7916  140.0288  163.2579 C.ar    1  UNL1        0.0153
     21 C         142.8931  138.8856  162.8894 C.ar    1  UNL1       -0.0041
     22 C         145.1258  140.0766  163.9418 C.3     1  UNL1        0.0767
     23 C         145.5454  141.5134  164.0391 C.3     1  UNL1        0.2102
     24 O         144.4706  142.3536  163.4155 O.3     1  UNL1       -0.4754
@<TRIPOS>BOND
     1     1     2    1
     2     2     3    1
     3     3     4    1
     4     4     5    2
     5     5     6    1
     6     6     7   ar
     7     7     8   ar
     8     8     9   ar
     9     9    12    1
    10    12    13    1
    11    12    14    1
    12     9    10   ar
    13    10    11   ar
    14     2    15    1
    15    15    16    1
    16    16    17   ar
    17    17    18   ar
    18    18    19   ar
    19    19    20   ar
    20    20    21   ar
    21    20    22    1
    22    22    23    1
    23    23    24    1
    24    11     6   ar
    25    21    16   ar
    26    24    19    1
@<TRIPOS>MOLECULE
*****
 24 26 0 0 0
SMALL
GASTEIGER

@<TRIPOS>ATOM
      1 C         142.4264  140.8284  170.7492 C.3     1  UNL1        0.0902
      2 N         141.3828  141.0153  169.6881 N.3     1  UNL1       -0.2639
      3 C         140.5467  139.8514  169.2451 C.3     1  UNL1        0.0992
      4 C         140.3324  139.5953  167.7827 C.2     1  UNL1       -0.0088
      5 C         138.9533  139.6858  167.1997 C.2     1  UNL1       -0.0032
      6 C         138.7390  139.4298  165.7374 C.ar    1  UNL1       -0.0003
      7 C         139.0958  138.0970  165.1491 C.ar    1  UNL1       -0.0002
      8 C         138.8815  137.8409  163.6867 C.ar    1  UNL1        0.0011
      9 C         138.3102  138.9177  162.8126 C.ar    1  UNL1        0.0436
     10 C         137.9533  140.2506  163.4008 C.ar    1  UNL1        0.0011
     11 C         138.1677  140.5067  164.8632 C.ar    1  UNL1       -0.0002
     12 C         138.0959  138.6617  161.3502 C.3     1  UNL1        0.3410
     13 F         136.9962  139.3718  160.6178 F       1  UNL1       -0.1933
     14 F         138.9813  137.6955  160.6204 F       1  UNL1       -0.1933
     15 C         141.1752  142.3662  169.0700 C.3     1  UNL1        0.0994
     16 C         141.4688  142.5781  167.6142 C.ar    1  UNL1       -0.0062
     17 C         140.3827  143.0424  166.6899 C.ar    1  UNL1        0.0002
     18 C         140.6762  143.2543  165.2343 C.ar    1  UNL1        0.0363
     19 C         142.0561  143.0017  164.7030 C.ar    1  UNL1        0.1346
     20 C         143.1423  142.5373  165.6273 C.ar    1  UNL1        0.0153
     21 C         142.8487  142.3255  167.0830 C.ar    1  UNL1       -0.0041
     22 C         144.3969  142.3715  164.8220 C.3     1  UNL1        0.0767
     23 C         144.0860  142.7334  163.3999 C.3     1  UNL1        0.2102
     24 O         142.6393  143.1229  163.3263 O.3     1  UNL1       -0.4754
@<TRIPOS>BOND
     1     1     2    1
     2     2     3    1
     3     3     4    1
     4     4     5    2
     5     5     6    1
     6     6     7   ar
     7     7     8   ar
     8     8     9   ar
     9     9    12    1
    10    12    13    1
    11    12    14    1
    12     9    10   ar
    13    10    11   ar
    14     2    15    1
    15    15    16    1
    16    16    17   ar
    17    17    18   ar
    18    18    19   ar
    19    19    20   ar
    20    20    21   ar
    21    20    22    1
    22    22    23    1
    23    23    24    1
    24    11     6   ar
    25    21    16   ar
    26    24    19    1
