@<TRIPOS>MOLECULE
*****
 40 44 0 0 0
SMALL
GASTEIGER

@<TRIPOS>ATOM
      1 N         143.0558  137.2326  160.0726 N.am    1  UNL1       -0.3018
      2 C         142.6179  137.9907  158.8546 C.2     1  UNL1        0.2425
      3 O         142.0293  139.3631  158.9968 O.2     1  UNL1       -0.2733
      4 H         143.4421  136.3319  159.9794 H       1  UNL1        0.1495
      5 N         142.6921  138.7157  163.3563 N.3     1  UNL1       -0.2711
      6 C         143.7584  138.7231  162.3013 C.3     1  UNL1        0.0933
      7 C         142.9051  137.8469  161.4328 C.3     1  UNL1        0.1035
      8 C         141.8389  137.8395  162.4877 C.3     1  UNL1        0.0933
      9 C         142.2401  140.5587  167.4366 C.3     1  UNL1        0.0237
     10 C         142.9030  139.2214  167.2869 C.3     1  UNL1        0.0058
     11 C         143.0537  138.6071  165.9268 C.3     1  UNL1        0.0163
     12 C         142.5414  139.3300  164.7164 C.3     1  UNL1        0.0576
     13 C         141.8786  140.6672  164.8661 C.3     1  UNL1        0.0163
     14 C         141.7279  141.2816  166.2262 C.3     1  UNL1        0.0058
     15 N         139.9309  139.7807  169.1865 N.pl3   1  UNL1       -0.3560
     16 C         140.9349  140.7840  169.6717 C.ar    1  UNL1        0.0569
     17 C         140.7843  141.3984  171.0318 C.ar    1  UNL1        0.1126
     18 N         141.7883  142.4017  171.5170 N.ar    1  UNL1       -0.2411
     19 C         142.9429  142.7907  170.6420 C.ar    1  UNL1        0.0987
     20 C         143.0935  142.1764  169.2819 C.ar    1  UNL1        0.0176
     21 C         142.0895  141.1730  168.7967 C.ar    1  UNL1       -0.0065
     22 H         139.1731  139.5254  169.7608 H       1  UNL1        0.1424
     23 H         140.0298  139.3775  168.2939 H       1  UNL1        0.1424
     24 C         142.7686  137.3765  157.4945 C.3     1  UNL1        0.1747
     25 N         142.9165  135.8903  157.3549 N.pl3   1  UNL1       -0.3106
     26 H         143.1792  135.3466  158.1325 H       1  UNL1        0.1486
     27 C         142.6642  135.2326  156.0306 C.ar    1  UNL1        0.1320
     28 N         141.9919  135.9975  154.9293 N.ar    1  UNL1       -0.2092
     29 C         141.7396  135.3398  153.6050 C.ar    1  UNL1        0.2000
     30 N         142.1597  133.9172  153.3820 N.ar    1  UNL1       -0.2239
     31 C         142.8320  133.1523  154.4833 C.ar    1  UNL1        0.0857
     32 C         143.2520  131.7296  154.2604 C.ar    1  UNL1        0.0192
     33 C         143.9243  130.9647  155.3617 C.ar    1  UNL1        0.0054
     34 C         144.1766  131.6224  156.6860 C.ar    1  UNL1        0.0716
     35 C         143.7566  133.0451  156.9090 C.ar    1  UNL1        0.0081
     36 C         143.0842  133.8100  155.8076 C.ar    1  UNL1        0.0491
     37 C         144.8489  130.8575  157.7873 C.3     1  UNL1        0.4186
     38 F         145.5213  130.0926  158.8887 F       1  UNL1       -0.1659
     39 F         144.1159  129.6163  157.3726 F       1  UNL1       -0.1659
     40 F         145.5819  132.0988  158.2020 F       1  UNL1       -0.1659
@<TRIPOS>BOND
     1    15    16    1
     2    16    17   ar
     3    17    18   ar
     4    18    19   ar
     5    19    20   ar
     6    20    21   ar
     7     9    21    1
     8     9    10    1
     9    10    11    1
    10    11    12    1
    11    12     5    1
    12     5     6    1
    13     6     7    1
    14     7     1    1
    15     1     2   am
    16     2     3    2
    17     2    24    1
    18    24    25    1
    19    25    27    1
    20    27    28   ar
    21    28    29   ar
    22    29    30   ar
    23    30    31   ar
    24    31    32   ar
    25    32    33   ar
    26    33    34   ar
    27    34    37    1
    28    37    38    1
    29    37    39    1
    30    37    40    1
    31    34    35   ar
    32    35    36   ar
    33     7     8    1
    34    12    13    1
    35    13    14    1
    36    21    16   ar
    37    14     9    1
    38     8     5    1
    39    36    27   ar
    40    36    31   ar
    41    15    22    1
    42    15    23    1
    43     1     4    1
    44    25    26    1
@<TRIPOS>MOLECULE
*****
 40 44 0 0 0
SMALL
GASTEIGER

@<TRIPOS>ATOM
      1 N         144.1076  139.4102  159.5200 N.am    1  UNL1       -0.3018
      2 C         143.1087  139.6602  158.4292 C.2     1  UNL1        0.2425
      3 O         141.7221  140.1180  158.7726 O.2     1  UNL1       -0.2733
      4 H         145.0177  139.1098  159.2947 H       1  UNL1        0.1495
      5 N         143.1716  139.9119  162.9822 N.3     1  UNL1       -0.2711
      6 C         144.1336  140.5694  162.0375 C.3     1  UNL1        0.0933
      7 C         143.7199  139.6180  160.9541 C.3     1  UNL1        0.1035
      8 C         142.7580  138.9606  161.8987 C.3     1  UNL1        0.0933
      9 C         142.0086  140.5354  167.2843 C.3     1  UNL1        0.0237
     10 C         142.8879  139.3809  166.9048 C.3     1  UNL1        0.0058
     11 C         143.2756  139.1731  165.4708 C.3     1  UNL1        0.0163
     12 C         142.7840  140.1198  164.4162 C.3     1  UNL1        0.0576
     13 C         141.9047  141.2742  164.7956 C.3     1  UNL1        0.0163
     14 C         141.5170  141.4821  166.2297 C.3     1  UNL1        0.0058
     15 N         143.4981  142.5219  168.9681 N.pl3   1  UNL1       -0.3560
     16 C         142.3657  141.7365  169.5602 C.ar    1  UNL1        0.0569
     17 C         141.9780  141.9443  170.9943 C.ar    1  UNL1        0.1126
     18 N         140.8456  141.1589  171.5865 N.ar    1  UNL1       -0.2411
     19 C         140.1008  140.1656  170.7446 C.ar    1  UNL1        0.0987
     20 C         140.4885  139.9578  169.3105 C.ar    1  UNL1        0.0176
     21 C         141.6209  140.7433  168.7183 C.ar    1  UNL1       -0.0065
     22 H         143.9869  143.1738  169.5207 H       1  UNL1        0.1424
     23 H         143.7526  142.3856  168.0269 H       1  UNL1        0.1424
     24 C         143.4963  139.4524  156.9952 C.3     1  UNL1        0.1747
     25 N         143.7475  138.0665  156.4794 N.pl3   1  UNL1       -0.3106
     26 H         144.6403  137.6617  156.5703 H       1  UNL1        0.1486
     27 C         142.6383  137.2973  155.8250 C.ar    1  UNL1        0.1320
     28 N         141.5667  138.0241  155.0679 N.ar    1  UNL1       -0.2092
     29 C         140.4575  137.2550  154.4136 C.ar    1  UNL1        0.2000
     30 N         140.4200  135.7590  154.5164 N.ar    1  UNL1       -0.2239
     31 C         141.4916  135.0321  155.2736 C.ar    1  UNL1        0.0857
     32 C         141.4541  133.5361  155.3765 C.ar    1  UNL1        0.0192
     33 C         142.5257  132.8093  156.1336 C.ar    1  UNL1        0.0054
     34 C         143.6349  133.5785  156.7880 C.ar    1  UNL1        0.0716
     35 C         143.6724  135.0745  156.6851 C.ar    1  UNL1        0.0081
     36 C         142.6007  135.8013  155.9279 C.ar    1  UNL1        0.0491
     37 C         144.7065  132.8517  157.5452 C.3     1  UNL1        0.4186
     38 F         145.7782  132.1248  158.3023 F       1  UNL1       -0.1659
     39 F         144.4279  133.6980  158.7518 F       1  UNL1       -0.1659
     40 F         144.9851  132.0053  156.3385 F       1  UNL1       -0.1659
@<TRIPOS>BOND
     1    15    16    1
     2    16    17   ar
     3    17    18   ar
     4    18    19   ar
     5    19    20   ar
     6    20    21   ar
     7     9    21    1
     8     9    10    1
     9    10    11    1
    10    11    12    1
    11    12     5    1
    12     5     6    1
    13     6     7    1
    14     7     1    1
    15     1     2   am
    16     2     3    2
    17     2    24    1
    18    24    25    1
    19    25    27    1
    20    27    28   ar
    21    28    29   ar
    22    29    30   ar
    23    30    31   ar
    24    31    32   ar
    25    32    33   ar
    26    33    34   ar
    27    34    37    1
    28    37    38    1
    29    37    39    1
    30    37    40    1
    31    34    35   ar
    32    35    36   ar
    33     7     8    1
    34    12    13    1
    35    13    14    1
    36    21    16   ar
    37    14     9    1
    38     8     5    1
    39    36    27   ar
    40    36    31   ar
    41    15    22    1
    42    15    23    1
    43     1     4    1
    44    25    26    1
@<TRIPOS>MOLECULE
*****
 40 44 0 0 0
SMALL
GASTEIGER

@<TRIPOS>ATOM
      1 N         141.3020  138.3601  159.6513 N.am    1  UNL1       -0.3018
      2 C         142.6234  138.3398  158.9419 C.2     1  UNL1        0.2425
      3 O         143.8691  138.7601  159.6643 O.2     1  UNL1       -0.2733
      4 H         140.4844  138.0843  159.1772 H       1  UNL1        0.1495
      5 N         141.1190  139.4236  163.1082 N.3     1  UNL1       -0.2711
      6 C         141.4992  138.1527  162.4082 C.3     1  UNL1        0.0933
      7 C         141.2261  138.8007  161.0832 C.3     1  UNL1        0.1035
      8 C         140.8459  140.0716  161.7832 C.3     1  UNL1        0.0933
      9 C         140.8915  140.7451  167.4037 C.3     1  UNL1        0.0237
     10 C         142.1146  141.0476  166.5897 C.3     1  UNL1        0.0058
     11 C         142.1905  140.6071  165.1579 C.3     1  UNL1        0.0163
     12 C         141.0432  139.8641  164.5400 C.3     1  UNL1        0.0576
     13 C         139.8201  139.5617  165.3539 C.3     1  UNL1        0.0163
     14 C         139.7442  140.0022  166.7858 C.3     1  UNL1        0.0058
     15 N         142.2275  139.1232  169.5449 N.pl3   1  UNL1       -0.3560
     16 C         141.4837  140.3747  169.9061 C.ar    1  UNL1        0.0569
     17 C         141.4079  140.8152  171.3380 C.ar    1  UNL1        0.1126
     18 N         140.6641  142.0667  171.6993 N.ar    1  UNL1       -0.2411
     19 C         139.9961  142.8777  170.6287 C.ar    1  UNL1        0.0987
     20 C         140.0719  142.4372  169.1969 C.ar    1  UNL1        0.0176
     21 C         140.8157  141.1856  168.8356 C.ar    1  UNL1       -0.0065
     22 H         142.6659  138.5910  170.2475 H       1  UNL1        0.1424
     23 H         142.2773  138.8341  168.6051 H       1  UNL1        0.1424
     24 C         142.6993  137.8993  157.5101 C.3     1  UNL1        0.1747
     25 N         143.2614  136.5511  157.1690 N.pl3   1  UNL1       -0.3106
     26 H         143.8885  136.1088  157.7857 H       1  UNL1        0.1486
     27 C         142.8679  135.8767  155.8881 C.ar    1  UNL1        0.1320
     28 N         142.1795  136.6590  154.8093 N.ar    1  UNL1       -0.2092
     29 C         141.7860  135.9846  153.5286 C.ar    1  UNL1        0.2000
     30 N         142.0811  134.5279  153.3266 N.ar    1  UNL1       -0.2239
     31 C         142.7695  133.7455  154.4054 C.ar    1  UNL1        0.0857
     32 C         143.0645  132.2887  154.2035 C.ar    1  UNL1        0.0192
     33 C         143.7530  131.5063  155.2823 C.ar    1  UNL1        0.0054
     34 C         144.1464  132.1807  156.5632 C.ar    1  UNL1        0.0716
     35 C         143.8514  133.6375  156.7651 C.ar    1  UNL1        0.0081
     36 C         143.1629  134.4199  155.6862 C.ar    1  UNL1        0.0491
     37 C         144.8349  131.3984  157.6420 C.3     1  UNL1        0.4186
     38 F         145.5233  130.6159  158.7208 F       1  UNL1       -0.1659
     39 F         145.6294  132.6142  158.0167 F       1  UNL1       -0.1659
     40 F         144.0404  130.1825  157.2672 F       1  UNL1       -0.1659
@<TRIPOS>BOND
     1    15    16    1
     2    16    17   ar
     3    17    18   ar
     4    18    19   ar
     5    19    20   ar
     6    20    21   ar
     7     9    21    1
     8     9    10    1
     9    10    11    1
    10    11    12    1
    11    12     5    1
    12     5     6    1
    13     6     7    1
    14     7     1    1
    15     1     2   am
    16     2     3    2
    17     2    24    1
    18    24    25    1
    19    25    27    1
    20    27    28   ar
    21    28    29   ar
    22    29    30   ar
    23    30    31   ar
    24    31    32   ar
    25    32    33   ar
    26    33    34   ar
    27    34    37    1
    28    37    38    1
    29    37    39    1
    30    37    40    1
    31    34    35   ar
    32    35    36   ar
    33     7     8    1
    34    12    13    1
    35    13    14    1
    36    21    16   ar
    37    14     9    1
    38     8     5    1
    39    36    27   ar
    40    36    31   ar
    41    15    22    1
    42    15    23    1
    43     1     4    1
    44    25    26    1
@<TRIPOS>MOLECULE
*****
 40 44 0 0 0
SMALL
GASTEIGER

@<TRIPOS>ATOM
      1 N         142.9211  138.1761  157.7267 N.am    1  UNL1       -0.3018
      2 C         143.8356  139.1016  156.9804 C.2     1  UNL1        0.2425
      3 O         144.4741  140.2586  157.6902 O.2     1  UNL1       -0.2733
      4 H         142.5020  137.4167  157.2609 H       1  UNL1        0.1495
      5 N         142.2545  138.7349  161.2421 N.3     1  UNL1       -0.2711
      6 C         141.4312  138.7649  159.9886 C.3     1  UNL1        0.0933
      7 C         142.6450  138.4076  159.1829 C.3     1  UNL1        0.1035
      8 C         143.4682  138.3776  160.4363 C.3     1  UNL1        0.0933
      9 C         141.4262  139.4293  165.6103 C.3     1  UNL1        0.0237
     10 C         142.0316  140.5213  164.7789 C.3     1  UNL1        0.0058
     11 C         142.3077  140.2898  163.3228 C.3     1  UNL1        0.0163
     12 C         141.9784  138.9664  162.6982 C.3     1  UNL1        0.0576
     13 C         141.3730  137.8745  163.5295 C.3     1  UNL1        0.0163
     14 C         141.0969  138.1060  164.9857 C.3     1  UNL1        0.0058
     15 N         143.4931  138.7093  167.6620 N.pl3   1  UNL1       -0.3560
     16 C         142.1835  139.3008  168.0922 C.ar    1  UNL1        0.0569
     17 C         141.9074  139.5323  169.5484 C.ar    1  UNL1        0.1126
     18 N         140.5978  140.1238  169.9786 N.ar    1  UNL1       -0.2411
     19 C         139.5644  140.4839  168.9527 C.ar    1  UNL1        0.0987
     20 C         139.8405  140.2524  167.4967 C.ar    1  UNL1        0.0176
     21 C         141.1501  139.6608  167.0664 C.ar    1  UNL1       -0.0065
     22 H         144.1714  138.4729  168.3353 H       1  UNL1        0.1424
     23 H         143.6743  138.5573  166.7064 H       1  UNL1        0.1424
     24 C         144.1117  138.8702  155.5243 C.3     1  UNL1        0.1747
     25 N         144.3156  137.4752  155.0121 N.pl3   1  UNL1       -0.3106
     26 H         145.2209  137.0896  154.9811 H       1  UNL1        0.1486
     27 C         143.1400  136.6677  154.5471 C.ar    1  UNL1        0.1320
     28 N         142.1605  137.2590  153.5771 N.ar    1  UNL1       -0.2092
     29 C         140.9850  136.4515  153.1122 C.ar    1  UNL1        0.2000
     30 N         140.7891  135.0527  153.6171 N.ar    1  UNL1       -0.2239
     31 C         141.7687  134.4614  154.5870 C.ar    1  UNL1        0.0857
     32 C         141.5728  133.0626  155.0919 C.ar    1  UNL1        0.0192
     33 C         142.5523  132.4713  156.0619 C.ar    1  UNL1        0.0054
     34 C         143.7278  133.2788  156.5269 C.ar    1  UNL1        0.0716
     35 C         143.9237  134.6776  156.0220 C.ar    1  UNL1        0.0081
     36 C         142.9441  135.2689  155.0520 C.ar    1  UNL1        0.0491
     37 C         144.7074  132.6874  157.4968 C.3     1  UNL1        0.4186
     38 F         145.6869  132.0961  158.4668 F       1  UNL1       -0.1659
     39 F         145.1753  131.7304  156.4408 F       1  UNL1       -0.1659
     40 F         144.2395  133.6444  158.5528 F       1  UNL1       -0.1659
@<TRIPOS>BOND
     1    15    16    1
     2    16    17   ar
     3    17    18   ar
     4    18    19   ar
     5    19    20   ar
     6    20    21   ar
     7     9    21    1
     8     9    10    1
     9    10    11    1
    10    11    12    1
    11    12     5    1
    12     5     6    1
    13     6     7    1
    14     7     1    1
    15     1     2   am
    16     2     3    2
    17     2    24    1
    18    24    25    1
    19    25    27    1
    20    27    28   ar
    21    28    29   ar
    22    29    30   ar
    23    30    31   ar
    24    31    32   ar
    25    32    33   ar
    26    33    34   ar
    27    34    37    1
    28    37    38    1
    29    37    39    1
    30    37    40    1
    31    34    35   ar
    32    35    36   ar
    33     7     8    1
    34    12    13    1
    35    13    14    1
    36    21    16   ar
    37    14     9    1
    38     8     5    1
    39    36    27   ar
    40    36    31   ar
    41    15    22    1
    42    15    23    1
    43     1     4    1
    44    25    26    1
@<TRIPOS>MOLECULE
*****
 40 44 0 0 0
SMALL
GASTEIGER

@<TRIPOS>ATOM
      1 N         140.1858  140.6536  160.3576 N.am    1  UNL1       -0.3018
      2 C         139.3324  139.4483  160.0952 C.2     1  UNL1        0.2425
      3 O         139.7181  138.4760  159.0200 O.2     1  UNL1       -0.2733
      4 H         139.9328  141.2918  161.0633 H       1  UNL1        0.1495
      5 N         143.1772  141.2162  158.3955 N.3     1  UNL1       -0.2711
      6 C         142.8517  140.4320  159.6321 C.3     1  UNL1        0.0933
      7 C         141.4249  140.8867  159.5448 C.3     1  UNL1        0.1035
      8 C         141.7504  141.6708  158.3083 C.3     1  UNL1        0.0933
      9 C         146.8943  141.9152  155.9574 C.3     1  UNL1        0.0237
     10 C         145.9308  140.8352  155.5632 C.3     1  UNL1        0.0058
     11 C         144.6918  140.6022  156.3759 C.3     1  UNL1        0.0163
     12 C         144.4162  141.4491  157.5828 C.3     1  UNL1        0.0576
     13 C         145.3796  142.5291  157.9771 C.3     1  UNL1        0.0163
     14 C         146.6187  142.7621  157.1644 C.3     1  UNL1        0.0058
     15 N         146.7839  143.6627  153.5215 N.pl3   1  UNL1       -0.3560
     16 C         148.0781  143.0219  153.9268 C.ar    1  UNL1        0.0569
     17 C         149.3172  143.2549  153.1140 C.ar    1  UNL1        0.1126
     18 N         150.6114  142.6141  153.5193 N.ar    1  UNL1       -0.2411
     19 C         150.6667  141.7404  154.7373 C.ar    1  UNL1        0.0987
     20 C         149.4277  141.5074  155.5500 C.ar    1  UNL1        0.0176
     21 C         148.1333  142.1482  155.1447 C.ar    1  UNL1       -0.0065
     22 H         146.7476  144.2362  152.7220 H       1  UNL1        0.1424
     23 H         145.9706  143.5098  154.0548 H       1  UNL1        0.1424
     24 C         138.0934  139.2152  160.9079 C.3     1  UNL1        0.1747
     25 N         137.3929  140.3725  161.5559 N.pl3   1  UNL1       -0.3106
     26 H         136.4266  140.5024  161.4188 H       1  UNL1        0.1486
     27 C         138.1644  141.3318  162.4130 C.ar    1  UNL1        0.1320
     28 N         138.5899  142.6586  161.8575 N.ar    1  UNL1       -0.2092
     29 C         139.3614  143.6178  162.7145 C.ar    1  UNL1        0.2000
     30 N         139.7075  143.2503  164.1270 N.ar    1  UNL1       -0.2239
     31 C         139.2821  141.9235  164.6825 C.ar    1  UNL1        0.0857
     32 C         139.6282  141.5560  166.0950 C.ar    1  UNL1        0.0192
     33 C         139.2027  140.2292  166.6504 C.ar    1  UNL1        0.0054
     34 C         138.4311  139.2699  165.7934 C.ar    1  UNL1        0.0716
     35 C         138.0850  139.6374  164.3809 C.ar    1  UNL1        0.0081
     36 C         138.5105  140.9643  163.8254 C.ar    1  UNL1        0.0491
     37 C         138.0057  137.9431  166.3489 C.3     1  UNL1        0.4186
     38 F         137.5803  136.6162  166.9043 F       1  UNL1       -0.1659
     39 F         137.2528  138.6421  167.4418 F       1  UNL1       -0.1659
     40 F         138.7586  137.2441  165.2559 F       1  UNL1       -0.1659
@<TRIPOS>BOND
     1    15    16    1
     2    16    17   ar
     3    17    18   ar
     4    18    19   ar
     5    19    20   ar
     6    20    21   ar
     7     9    21    1
     8     9    10    1
     9    10    11    1
    10    11    12    1
    11    12     5    1
    12     5     6    1
    13     6     7    1
    14     7     1    1
    15     1     2   am
    16     2     3    2
    17     2    24    1
    18    24    25    1
    19    25    27    1
    20    27    28   ar
    21    28    29   ar
    22    29    30   ar
    23    30    31   ar
    24    31    32   ar
    25    32    33   ar
    26    33    34   ar
    27    34    37    1
    28    37    38    1
    29    37    39    1
    30    37    40    1
    31    34    35   ar
    32    35    36   ar
    33     7     8    1
    34    12    13    1
    35    13    14    1
    36    21    16   ar
    37    14     9    1
    38     8     5    1
    39    36    27   ar
    40    36    31   ar
    41    15    22    1
    42    15    23    1
    43     1     4    1
    44    25    26    1
@<TRIPOS>MOLECULE
*****
 40 44 0 0 0
SMALL
GASTEIGER

@<TRIPOS>ATOM
      1 N         139.8113  140.8843  159.9721 N.am    1  UNL1       -0.3018
      2 C         138.7201  140.0387  159.3853 C.2     1  UNL1        0.2425
      3 O         138.9046  139.4050  158.0383 O.2     1  UNL1       -0.2733
      4 H         139.6903  141.3002  160.8562 H       1  UNL1        0.1495
      5 N         142.8910  141.3958  158.1368 N.3     1  UNL1       -0.2711
      6 C         142.4567  140.4857  159.2473 C.3     1  UNL1        0.0933
      7 C         141.0870  141.0962  159.2119 C.3     1  UNL1        0.1035
      8 C         141.5212  142.0062  158.1015 C.3     1  UNL1        0.0933
      9 C         146.7178  142.0313  155.8562 C.3     1  UNL1        0.0237
     10 C         145.6408  141.1571  155.2853 C.3     1  UNL1        0.0058
     11 C         144.3652  140.9453  156.0455 C.3     1  UNL1        0.0163
     12 C         144.1666  141.6076  157.3766 C.3     1  UNL1        0.0576
     13 C         145.2435  142.4818  157.9475 C.3     1  UNL1        0.0163
     14 C         146.5192  142.6936  157.1873 C.3     1  UNL1        0.0058
     15 N         146.7782  143.9161  153.5230 N.pl3   1  UNL1       -0.3560
     16 C         148.0236  143.1855  153.9294 C.ar    1  UNL1        0.0569
     17 C         149.2993  143.3973  153.1692 C.ar    1  UNL1        0.1126
     18 N         150.5447  142.6668  153.5756 N.ar    1  UNL1       -0.2411
     19 C         150.5145  141.7244  154.7423 C.ar    1  UNL1        0.0987
     20 C         149.2389  141.5126  155.5024 C.ar    1  UNL1        0.0176
     21 C         147.9934  142.2431  155.0960 C.ar    1  UNL1       -0.0065
     22 H         146.7981  144.5346  152.7573 H       1  UNL1        0.1424
     23 H         145.9410  143.7770  154.0219 H       1  UNL1        0.1424
     24 C         137.4446  139.8268  160.1455 C.3     1  UNL1        0.1747
     25 N         137.3454  140.2572  161.5790 N.pl3   1  UNL1       -0.3106
     26 H         136.7846  141.0284  161.8238 H       1  UNL1        0.1486
     27 C         138.1008  139.5125  162.6396 C.ar    1  UNL1        0.1320
     28 N         138.2771  138.0268  162.5317 N.ar    1  UNL1       -0.2092
     29 C         139.0324  137.2822  163.5922 C.ar    1  UNL1        0.2000
     30 N         139.6116  138.0232  164.7608 N.ar    1  UNL1       -0.2239
     31 C         139.4354  139.5088  164.8687 C.ar    1  UNL1        0.0857
     32 C         140.0145  140.2499  166.0373 C.ar    1  UNL1        0.0192
     33 C         139.8383  141.7355  166.1452 C.ar    1  UNL1        0.0054
     34 C         139.0829  142.4802  165.0846 C.ar    1  UNL1        0.0716
     35 C         138.5037  141.7392  163.9161 C.ar    1  UNL1        0.0081
     36 C         138.6800  140.2535  163.8082 C.ar    1  UNL1        0.0491
     37 C         138.9067  143.9659  165.1926 C.3     1  UNL1        0.4186
     38 F         138.7305  145.4517  165.3006 F       1  UNL1       -0.1659
     39 F         137.4309  143.8065  164.9767 F       1  UNL1       -0.1659
     40 F         140.3824  144.1253  165.4085 F       1  UNL1       -0.1659
@<TRIPOS>BOND
     1    15    16    1
     2    16    17   ar
     3    17    18   ar
     4    18    19   ar
     5    19    20   ar
     6    20    21   ar
     7     9    21    1
     8     9    10    1
     9    10    11    1
    10    11    12    1
    11    12     5    1
    12     5     6    1
    13     6     7    1
    14     7     1    1
    15     1     2   am
    16     2     3    2
    17     2    24    1
    18    24    25    1
    19    25    27    1
    20    27    28   ar
    21    28    29   ar
    22    29    30   ar
    23    30    31   ar
    24    31    32   ar
    25    32    33   ar
    26    33    34   ar
    27    34    37    1
    28    37    38    1
    29    37    39    1
    30    37    40    1
    31    34    35   ar
    32    35    36   ar
    33     7     8    1
    34    12    13    1
    35    13    14    1
    36    21    16   ar
    37    14     9    1
    38     8     5    1
    39    36    27   ar
    40    36    31   ar
    41    15    22    1
    42    15    23    1
    43     1     4    1
    44    25    26    1
@<TRIPOS>MOLECULE
*****
 40 44 0 0 0
SMALL
GASTEIGER

@<TRIPOS>ATOM
      1 N         142.5811  142.7030  157.7253 N.am    1  UNL1       -0.3018
      2 C         141.7022  143.1207  158.8667 C.2     1  UNL1        0.2425
      3 O         141.0031  142.0827  159.6938 O.2     1  UNL1       -0.2733
      4 H         143.0400  143.3842  157.1824 H       1  UNL1        0.1495
      5 N         143.0152  139.1888  156.9662 N.3     1  UNL1       -0.2711
      6 C         142.1935  140.3044  156.3916 C.3     1  UNL1        0.0933
      7 C         142.7610  141.2473  157.4108 C.3     1  UNL1        0.1035
      8 C         143.5827  140.1318  157.9854 C.3     1  UNL1        0.0933
      9 C         143.5546  134.8219  156.0228 C.3     1  UNL1        0.0237
     10 C         142.7701  135.2367  157.2322 C.3     1  UNL1        0.0058
     11 C         142.5903  136.6923  157.5466 C.3     1  UNL1        0.0163
     12 C         143.1950  137.7332  156.6517 C.3     1  UNL1        0.0576
     13 C         143.9795  137.3185  155.4424 C.3     1  UNL1        0.0163
     14 C         144.1593  135.8628  155.1279 C.3     1  UNL1        0.0058
     15 N         145.1278  133.0691  157.8809 N.pl3   1  UNL1       -0.3560
     16 C         144.5210  132.4899  156.6374 C.ar    1  UNL1        0.0569
     17 C         144.7007  131.0343  156.3229 C.ar    1  UNL1        0.1126
     18 N         144.0939  130.4551  155.0795 N.ar    1  UNL1       -0.2411
     19 C         143.3073  131.3315  154.1504 C.ar    1  UNL1        0.0987
     20 C         143.1275  132.7871  154.4648 C.ar    1  UNL1        0.0176
     21 C         143.7344  133.3664  155.7084 C.ar    1  UNL1       -0.0065
     22 H         145.6441  132.4939  158.4906 H       1  UNL1        0.1424
     23 H         145.0098  134.0245  158.0873 H       1  UNL1        0.1424
     24 C         141.5224  144.5763  159.1812 C.3     1  UNL1        0.1747
     25 N         141.8712  145.0980  160.5436 N.pl3   1  UNL1       -0.3106
     26 H         142.7077  145.5989  160.6795 H       1  UNL1        0.1486
     27 C         140.9455  144.8563  161.6989 C.ar    1  UNL1        0.1320
     28 N         139.5283  145.3443  161.6392 N.ar    1  UNL1       -0.2092
     29 C         138.6027  145.1026  162.7945 C.ar    1  UNL1        0.2000
     30 N         139.0941  144.3730  164.0094 N.ar    1  UNL1       -0.2239
     31 C         140.5113  143.8851  164.0691 C.ar    1  UNL1        0.0857
     32 C         141.0027  143.1555  165.2841 C.ar    1  UNL1        0.0192
     33 C         142.4198  142.6676  165.3438 C.ar    1  UNL1        0.0054
     34 C         143.3456  142.9092  164.1885 C.ar    1  UNL1        0.0716
     35 C         142.8541  143.6388  162.9735 C.ar    1  UNL1        0.0081
     36 C         141.4369  144.1267  162.9139 C.ar    1  UNL1        0.0491
     37 C         144.7627  142.4212  164.2482 C.3     1  UNL1        0.4186
     38 F         146.1799  141.9332  164.3079 F       1  UNL1       -0.1659
     39 F         145.0441  143.3756  165.3707 F       1  UNL1       -0.1659
     40 F         144.4814  141.4668  163.1258 F       1  UNL1       -0.1659
@<TRIPOS>BOND
     1    15    16    1
     2    16    17   ar
     3    17    18   ar
     4    18    19   ar
     5    19    20   ar
     6    20    21   ar
     7     9    21    1
     8     9    10    1
     9    10    11    1
    10    11    12    1
    11    12     5    1
    12     5     6    1
    13     6     7    1
    14     7     1    1
    15     1     2   am
    16     2     3    2
    17     2    24    1
    18    24    25    1
    19    25    27    1
    20    27    28   ar
    21    28    29   ar
    22    29    30   ar
    23    30    31   ar
    24    31    32   ar
    25    32    33   ar
    26    33    34   ar
    27    34    37    1
    28    37    38    1
    29    37    39    1
    30    37    40    1
    31    34    35   ar
    32    35    36   ar
    33     7     8    1
    34    12    13    1
    35    13    14    1
    36    21    16   ar
    37    14     9    1
    38     8     5    1
    39    36    27   ar
    40    36    31   ar
    41    15    22    1
    42    15    23    1
    43     1     4    1
    44    25    26    1
@<TRIPOS>MOLECULE
*****
 40 44 0 0 0
SMALL
GASTEIGER

@<TRIPOS>ATOM
      1 N         143.5404  140.1925  156.5276 N.am    1  UNL1       -0.3018
      2 C         143.8868  140.7209  157.8880 C.2     1  UNL1        0.2425
      3 O         144.0640  139.7737  159.0377 O.2     1  UNL1       -0.2733
      4 H         143.4240  140.8141  155.7730 H       1  UNL1        0.1495
      5 N         143.1320  136.6304  156.0186 N.3     1  UNL1       -0.2711
      6 C         144.1547  137.6496  155.6120 C.3     1  UNL1        0.0933
      7 C         143.3712  138.7170  156.3168 C.3     1  UNL1        0.1035
      8 C         142.3486  137.6979  156.7234 C.3     1  UNL1        0.0933
      9 C         142.6247  132.2040  155.3862 C.3     1  UNL1        0.0237
     10 C         142.4209  133.1533  154.2427 C.3     1  UNL1        0.0058
     11 C         142.5901  134.6287  154.4535 C.3     1  UNL1        0.0163
     12 C         142.9629  135.1550  155.8078 C.3     1  UNL1        0.0576
     13 C         143.1666  134.2058  156.9513 C.3     1  UNL1        0.0163
     14 C         142.9975  132.7303  156.7405 C.3     1  UNL1        0.0058
     15 N         145.0305  130.4133  155.3161 N.pl3   1  UNL1       -0.3560
     16 C         143.6585  129.8332  155.1403 C.ar    1  UNL1        0.0569
     17 C         143.4893  128.3577  154.9295 C.ar    1  UNL1        0.1126
     18 N         142.1172  127.7777  154.7538 N.ar    1  UNL1       -0.2411
     19 C         140.9143  128.6731  154.7889 C.ar    1  UNL1        0.0987
     20 C         141.0834  130.1485  154.9997 C.ar    1  UNL1        0.0176
     21 C         142.4555  130.7286  155.1754 C.ar    1  UNL1       -0.0065
     22 H         145.8201  129.8256  155.2930 H       1  UNL1        0.1424
     23 H         145.1416  131.3817  155.4544 H       1  UNL1        0.1424
     24 C         144.0560  142.1963  158.0989 C.3     1  UNL1        0.1747
     25 N         143.8170  142.7925  159.4544 N.pl3   1  UNL1       -0.3106
     26 H         144.4953  142.6954  160.1614 H       1  UNL1        0.1486
     27 C         142.5447  143.5366  159.7328 C.ar    1  UNL1        0.1320
     28 N         141.5424  143.7448  158.6364 N.ar    1  UNL1       -0.2092
     29 C         140.2701  144.4889  158.9148 C.ar    1  UNL1        0.2000
     30 N         140.0001  145.0248  160.2896 N.ar    1  UNL1       -0.2239
     31 C         141.0024  144.8166  161.3859 C.ar    1  UNL1        0.0857
     32 C         140.7324  145.3525  162.7607 C.ar    1  UNL1        0.0192
     33 C         141.7347  145.1443  163.8570 C.ar    1  UNL1        0.0054
     34 C         143.0071  144.4001  163.5786 C.ar    1  UNL1        0.0716
     35 C         143.2771  143.8643  162.2039 C.ar    1  UNL1        0.0081
     36 C         142.2747  144.0725  161.1075 C.ar    1  UNL1        0.0491
     37 C         144.0094  144.1920  164.6750 C.3     1  UNL1        0.4186
     38 F         145.0117  143.9837  165.7714 F       1  UNL1       -0.1659
     39 F         144.1735  145.6771  164.8069 F       1  UNL1       -0.1659
     40 F         143.8452  142.7068  164.5430 F       1  UNL1       -0.1659
@<TRIPOS>BOND
     1    15    16    1
     2    16    17   ar
     3    17    18   ar
     4    18    19   ar
     5    19    20   ar
     6    20    21   ar
     7     9    21    1
     8     9    10    1
     9    10    11    1
    10    11    12    1
    11    12     5    1
    12     5     6    1
    13     6     7    1
    14     7     1    1
    15     1     2   am
    16     2     3    2
    17     2    24    1
    18    24    25    1
    19    25    27    1
    20    27    28   ar
    21    28    29   ar
    22    29    30   ar
    23    30    31   ar
    24    31    32   ar
    25    32    33   ar
    26    33    34   ar
    27    34    37    1
    28    37    38    1
    29    37    39    1
    30    37    40    1
    31    34    35   ar
    32    35    36   ar
    33     7     8    1
    34    12    13    1
    35    13    14    1
    36    21    16   ar
    37    14     9    1
    38     8     5    1
    39    36    27   ar
    40    36    31   ar
    41    15    22    1
    42    15    23    1
    43     1     4    1
    44    25    26    1
@<TRIPOS>MOLECULE
*****
 40 44 0 0 0
SMALL
GASTEIGER

@<TRIPOS>ATOM
      1 N         140.2757  140.8105  157.3681 N.am    1  UNL1       -0.3018
      2 C         138.8055  141.0388  157.5592 C.2     1  UNL1        0.2425
      3 O         137.8381  139.9116  157.3502 O.2     1  UNL1       -0.2733
      4 H         140.9107  141.5502  157.5052 H       1  UNL1        0.1495
      5 N         141.4894  137.5381  156.4021 N.3     1  UNL1       -0.2711
      6 C         141.3690  138.8686  155.7200 C.3     1  UNL1        0.0933
      7 C         140.7784  139.4550  156.9680 C.3     1  UNL1        0.1035
      8 C         140.8988  138.1246  157.6500 C.3     1  UNL1        0.0933
      9 C         142.9976  133.4719  155.2017 C.3     1  UNL1        0.0237
     10 C         141.5479  133.8156  155.0276 C.3     1  UNL1        0.0058
     11 C         141.0452  135.1710  155.4277 C.3     1  UNL1        0.0163
     12 C         141.9921  136.1827  156.0019 C.3     1  UNL1        0.0576
     13 C         143.4418  135.8391  156.1760 C.3     1  UNL1        0.0163
     14 C         143.9446  134.4836  155.7759 C.3     1  UNL1        0.0058
     15 N         142.3794  132.3879  152.4736 N.pl3   1  UNL1       -0.3560
     16 C         143.1912  131.5745  153.4375 C.ar    1  UNL1        0.0569
     17 C         143.6940  130.2190  153.0374 C.ar    1  UNL1        0.1126
     18 N         144.5058  129.4056  154.0014 N.ar    1  UNL1       -0.2411
     19 C         144.8150  129.9476  155.3654 C.ar    1  UNL1        0.0987
     20 C         144.3122  131.3030  155.7655 C.ar    1  UNL1        0.0176
     21 C         143.5003  132.1165  154.8016 C.ar    1  UNL1       -0.0065
     22 H         142.1765  132.0322  151.5783 H       1  UNL1        0.1424
     23 H         142.0494  133.2775  152.7362 H       1  UNL1        0.1424
     24 C         138.3028  142.3941  157.9592 C.3     1  UNL1        0.1747
     25 N         138.5399  142.9013  159.3508 N.pl3   1  UNL1       -0.3106
     26 H         137.7975  142.9319  159.9968 H       1  UNL1        0.1486
     27 C         139.9081  143.3619  159.7583 C.ar    1  UNL1        0.1320
     28 N         141.0360  143.3280  158.7701 N.ar    1  UNL1       -0.2092
     29 C         142.4042  143.7886  159.1776 C.ar    1  UNL1        0.2000
     30 N         142.6443  144.2830  160.5732 N.ar    1  UNL1       -0.2239
     31 C         141.5164  144.3169  161.5614 C.ar    1  UNL1        0.0857
     32 C         141.7565  144.8114  162.9571 C.ar    1  UNL1        0.0192
     33 C         140.6286  144.8453  163.9452 C.ar    1  UNL1        0.0054
     34 C         139.2604  144.3847  163.5378 C.ar    1  UNL1        0.0716
     35 C         139.0202  143.8903  162.1421 C.ar    1  UNL1        0.0081
     36 C         140.1483  143.8564  161.1539 C.ar    1  UNL1        0.0491
     37 C         138.1324  144.4186  164.5259 C.3     1  UNL1        0.4186
     38 F         137.0044  144.4525  165.5141 F       1  UNL1       -0.1659
     39 F         138.9163  145.3631  165.3882 F       1  UNL1       -0.1659
     40 F         137.3486  143.4742  163.6636 F       1  UNL1       -0.1659
@<TRIPOS>BOND
     1    15    16    1
     2    16    17   ar
     3    17    18   ar
     4    18    19   ar
     5    19    20   ar
     6    20    21   ar
     7     9    21    1
     8     9    10    1
     9    10    11    1
    10    11    12    1
    11    12     5    1
    12     5     6    1
    13     6     7    1
    14     7     1    1
    15     1     2   am
    16     2     3    2
    17     2    24    1
    18    24    25    1
    19    25    27    1
    20    27    28   ar
    21    28    29   ar
    22    29    30   ar
    23    30    31   ar
    24    31    32   ar
    25    32    33   ar
    26    33    34   ar
    27    34    37    1
    28    37    38    1
    29    37    39    1
    30    37    40    1
    31    34    35   ar
    32    35    36   ar
    33     7     8    1
    34    12    13    1
    35    13    14    1
    36    21    16   ar
    37    14     9    1
    38     8     5    1
    39    36    27   ar
    40    36    31   ar
    41    15    22    1
    42    15    23    1
    43     1     4    1
    44    25    26    1
