@<TRIPOS>MOLECULE
*****
 42 46 0 0 0
SMALL
GASTEIGER

@<TRIPOS>ATOM
      1 C         140.9571  141.6711  165.5748 C.3     1  UNL1        0.0764
      2 C         140.8462  142.6361  164.4318 C.ar    1  UNL1        0.0181
      3 C         141.5471  142.3489  163.1371 C.ar    1  UNL1       -0.0009
      4 C         141.4363  143.3139  161.9940 C.ar    1  UNL1        0.0004
      5 C         142.1372  143.0267  160.6994 C.ar    1  UNL1        0.0067
      6 C         142.0263  143.9917  159.5564 C.ar    1  UNL1        0.0346
      7 BR        142.7272  143.7045  158.2616 Br      1  UNL1       -0.0490
      8 C         141.2145  145.2439  159.7081 C.ar    1  UNL1        0.0067
      9 C         140.5136  145.5311  161.0027 C.ar    1  UNL1        0.0006
     10 C         140.6245  144.5661  162.1457 C.ar    1  UNL1        0.0030
     11 C         139.9236  144.8533  163.4405 C.ar    1  UNL1        0.0366
     12 C         140.0344  143.8883  164.5834 C.ar    1  UNL1        0.1351
     13 O         139.3335  144.1755  165.8782 O.3     1  UNL1       -0.4717
     14 C         138.1770  145.1302  165.9092 C.3     1  UNL1        0.2525
     15 C         139.0559  138.3616  164.4874 C.ar    1  UNL1        0.2271
     16 C         139.9477  139.5665  164.4339 C.ar    1  UNL1        0.0540
     17 C         140.0653  140.4662  165.6284 C.ar    1  UNL1       -0.0064
     18 C         139.2910  140.1611  166.8763 C.ar    1  UNL1        0.0540
     19 C         138.3992  138.9562  166.9299 C.ar    1  UNL1        0.2272
     20 N         138.2816  138.0564  165.7354 N.ar    1  UNL1       -0.1767
     21 O         137.6249  138.6510  168.1778 O.3     1  UNL1       -0.4561
     22 C         136.5272  137.6292  168.1483 C.3     1  UNL1        0.2542
     23 O         138.9383  137.4619  163.2930 O.3     1  UNL1       -0.4602
     24 C         137.7284  139.3442  161.9728 C.3     1  UNL1        0.0512
     25 C         138.3770  137.9921  162.0070 C.3     1  UNL1        0.2072
     26 C         141.9598  141.9110  166.6644 C.3     1  UNL1        0.1186
     27 O         140.9806  142.8022  167.3693 O.3     1  UNL1       -0.3819
     28 H         140.1373  142.3350  167.4765 H       1  UNL1        0.2107
     29 C         142.9390  141.0198  165.9594 C.ar    1  UNL1        0.0369
     30 C         142.9315  139.5428  166.2204 C.ar    1  UNL1        0.0010
     31 C         143.9107  138.6516  165.5155 C.ar    1  UNL1       -0.0000
     32 C         144.8974  139.2374  164.5496 C.ar    1  UNL1        0.0031
     33 C         144.9049  140.7145  164.2886 C.ar    1  UNL1        0.0375
     34 C         145.7535  141.5719  163.3970 C.ar    1  UNL1        0.0437
     35 C         145.2987  142.9930  163.5509 C.ar    1  UNL1        0.1796
     36 O         144.1690  143.0139  164.5376 O.2     1  UNL1       -0.4507
     37 C         143.9257  141.6057  164.9935 C.ar    1  UNL1        0.1436
     38 C         142.9625  142.1510  167.7539 C.3     1  UNL1        0.0492
     39 C         142.4989  142.5225  169.1312 C.3     1  UNL1        0.0750
     40 N         142.0404  141.4562  170.0813 N.3     1  UNL1       -0.2702
     41 C         142.6354  140.0812  170.0094 C.3     1  UNL1        0.0897
     42 C         140.9867  141.7649  171.1034 C.3     1  UNL1        0.0897
@<TRIPOS>BOND
     1    24    25    1
     2    25    23    1
     3    23    15    1
     4    15    16   ar
     5    16    17   ar
     6     1    17    1
     7     1     2    1
     8     2     3   ar
     9     3     4   ar
    10     4     5   ar
    11     5     6   ar
    12     6     7    1
    13     6     8   ar
    14     8     9   ar
    15     9    10   ar
    16    10    11   ar
    17    11    12   ar
    18    12    13    1
    19    13    14    1
    20     1    26    1
    21    26    27    1
    22    26    38    1
    23    38    39    1
    24    39    40    1
    25    40    41    1
    26    40    42    1
    27    26    29    1
    28    29    30   ar
    29    30    31   ar
    30    31    32   ar
    31    32    33   ar
    32    33    34   ar
    33    34    35   ar
    34    35    36   ar
    35    36    37   ar
    36    17    18   ar
    37    18    19   ar
    38    19    21    1
    39    21    22    1
    40    19    20   ar
    41    20    15   ar
    42    12     2   ar
    43    37    29   ar
    44    10     4   ar
    45    37    33   ar
    46    27    28    1
@<TRIPOS>MOLECULE
*****
 42 46 0 0 0
SMALL
GASTEIGER

@<TRIPOS>ATOM
      1 C         140.1176  140.1564  164.1636 C.3     1  UNL1        0.0764
      2 C         140.0408  140.3111  165.6537 C.ar    1  UNL1        0.0181
      3 C         140.9915  141.2299  166.3623 C.ar    1  UNL1       -0.0009
      4 C         140.9147  141.3846  167.8524 C.ar    1  UNL1        0.0004
      5 C         141.8654  142.3034  168.5609 C.ar    1  UNL1        0.0067
      6 C         141.7886  142.4581  170.0509 C.ar    1  UNL1        0.0346
      7 BR        142.7393  143.3769  170.7596 Br      1  UNL1       -0.0490
      8 C         140.7611  141.6940  170.8323 C.ar    1  UNL1        0.0067
      9 C         139.8105  140.7753  170.1238 C.ar    1  UNL1        0.0006
     10 C         139.8873  140.6206  168.6338 C.ar    1  UNL1        0.0030
     11 C         138.9366  139.7018  167.9251 C.ar    1  UNL1        0.0366
     12 C         139.0134  139.5471  166.4351 C.ar    1  UNL1        0.1351
     13 O         138.0627  138.6283  165.7265 O.3     1  UNL1       -0.4717
     14 C         138.1210  137.1505  165.9768 C.3     1  UNL1        0.2525
     15 C         143.9834  139.6311  163.4362 C.ar    1  UNL1        0.2271
     16 C         142.7137  140.1088  164.0762 C.ar    1  UNL1        0.0540
     17 C         141.3872  139.6786  163.5236 C.ar    1  UNL1       -0.0064
     18 C         141.3304  138.7706  162.3311 C.ar    1  UNL1        0.0540
     19 C         142.6001  138.2928  161.6910 C.ar    1  UNL1        0.2272
     20 N         143.9266  138.7230  162.2436 N.ar    1  UNL1       -0.1767
     21 O         142.5433  137.3848  160.4984 O.3     1  UNL1       -0.4561
     22 C         142.7507  137.9418  159.1212 C.3     1  UNL1        0.2542
     23 O         145.3099  140.0613  163.9888 O.3     1  UNL1       -0.4602
     24 C         145.3049  142.2739  162.6270 C.3     1  UNL1        0.0512
     25 C         145.7751  141.4757  163.8068 C.3     1  UNL1        0.2072
     26 C         138.9246  140.4794  163.3136 C.3     1  UNL1        0.1186
     27 O         138.7311  139.0192  163.0303 O.3     1  UNL1       -0.3819
     28 H         138.7072  138.5280  163.8664 H       1  UNL1        0.2107
     29 C         139.1181  141.9396  163.5970 C.ar    1  UNL1        0.0369
     30 C         138.2658  142.6237  164.6244 C.ar    1  UNL1        0.0010
     31 C         138.4593  144.0839  164.9077 C.ar    1  UNL1       -0.0000
     32 C         139.5052  144.8601  164.1636 C.ar    1  UNL1        0.0031
     33 C         140.3575  144.1761  163.1362 C.ar    1  UNL1        0.0375
     34 C         141.4596  144.6779  162.2511 C.ar    1  UNL1        0.0437
     35 C         141.9473  143.5278  161.4207 C.ar    1  UNL1        0.1796
     36 O         141.1465  142.3151  161.7926 O.2     1  UNL1       -0.4507
     37 C         140.1640  142.7158  162.8529 C.ar    1  UNL1        0.1436
     38 C         137.7316  140.8024  162.4636 C.3     1  UNL1        0.0492
     39 C         137.5248  140.0902  161.1597 C.3     1  UNL1        0.0750
     40 N         138.4425  140.3596  160.0042 N.3     1  UNL1       -0.2702
     41 C         138.5999  141.7566  159.4813 C.3     1  UNL1        0.0897
     42 C         139.2030  139.2319  159.3717 C.3     1  UNL1        0.0897
@<TRIPOS>BOND
     1    24    25    1
     2    25    23    1
     3    23    15    1
     4    15    16   ar
     5    16    17   ar
     6     1    17    1
     7     1     2    1
     8     2     3   ar
     9     3     4   ar
    10     4     5   ar
    11     5     6   ar
    12     6     7    1
    13     6     8   ar
    14     8     9   ar
    15     9    10   ar
    16    10    11   ar
    17    11    12   ar
    18    12    13    1
    19    13    14    1
    20     1    26    1
    21    26    27    1
    22    26    38    1
    23    38    39    1
    24    39    40    1
    25    40    41    1
    26    40    42    1
    27    26    29    1
    28    29    30   ar
    29    30    31   ar
    30    31    32   ar
    31    32    33   ar
    32    33    34   ar
    33    34    35   ar
    34    35    36   ar
    35    36    37   ar
    36    17    18   ar
    37    18    19   ar
    38    19    21    1
    39    21    22    1
    40    19    20   ar
    41    20    15   ar
    42    12     2   ar
    43    37    29   ar
    44    10     4   ar
    45    37    33   ar
    46    27    28    1
@<TRIPOS>MOLECULE
*****
 42 46 0 0 0
SMALL
GASTEIGER

@<TRIPOS>ATOM
      1 C         140.4502  141.3148  164.9819 C.3     1  UNL1        0.0764
      2 C         141.1393  140.4307  163.9851 C.ar    1  UNL1        0.0181
      3 C         140.6395  140.3612  162.5726 C.ar    1  UNL1       -0.0009
      4 C         141.3286  139.4770  161.5758 C.ar    1  UNL1        0.0004
      5 C         140.8288  139.4075  160.1633 C.ar    1  UNL1        0.0067
      6 C         141.5179  138.5234  159.1666 C.ar    1  UNL1        0.0346
      7 BR        141.0180  138.4538  157.7540 Br      1  UNL1       -0.0490
      8 C         142.7068  137.7088  159.5824 C.ar    1  UNL1        0.0067
      9 C         143.2066  137.7783  160.9950 C.ar    1  UNL1        0.0006
     10 C         142.5175  138.6624  161.9916 C.ar    1  UNL1        0.0030
     11 C         143.0173  138.7320  163.4043 C.ar    1  UNL1        0.0366
     12 C         142.3282  139.6161  164.4010 C.ar    1  UNL1        0.1351
     13 O         142.8280  139.6856  165.8136 O.3     1  UNL1       -0.4717
     14 C         143.4253  138.4702  166.4585 C.3     1  UNL1        0.2525
     15 C         139.8356  140.5866  168.8344 C.ar    1  UNL1        0.2271
     16 C         140.4016  141.1743  167.5757 C.ar    1  UNL1        0.0540
     17 C         139.8843  140.7272  166.2406 C.ar    1  UNL1       -0.0064
     18 C         138.8011  139.6925  166.1641 C.ar    1  UNL1        0.0540
     19 C         138.2351  139.1047  167.4229 C.ar    1  UNL1        0.2272
     20 N         138.7523  139.5518  168.7580 N.ar    1  UNL1       -0.1767
     21 O         137.1518  138.0700  167.3464 O.3     1  UNL1       -0.4561
     22 C         137.4221  136.7483  166.6907 C.3     1  UNL1        0.2542
     23 O         140.3529  141.0337  170.1695 O.3     1  UNL1       -0.4602
     24 C         142.3787  139.4091  170.0857 C.3     1  UNL1        0.0512
     25 C         141.7445  140.6694  170.5949 C.3     1  UNL1        0.2072
     26 C         140.3271  142.7867  164.7199 C.3     1  UNL1        0.1186
     27 O         138.8330  142.6570  164.6934 O.3     1  UNL1       -0.3819
     28 H         138.5335  142.2036  165.4969 H       1  UNL1        0.2107
     29 C         141.8213  142.9164  164.7465 C.ar    1  UNL1        0.0369
     30 C         142.5547  142.8737  166.0543 C.ar    1  UNL1        0.0010
     31 C         144.0488  143.0034  166.0809 C.ar    1  UNL1       -0.0000
     32 C         144.8096  143.1758  164.7997 C.ar    1  UNL1        0.0031
     33 C         144.0762  143.2184  163.4919 C.ar    1  UNL1        0.0375
     34 C         144.5529  143.3766  162.0785 C.ar    1  UNL1        0.0437
     35 C         143.3535  143.3447  161.1784 C.ar    1  UNL1        0.1796
     36 O         142.1353  143.1668  162.0355 O.2     1  UNL1       -0.4507
     37 C         142.5821  143.0887  163.4653 C.ar    1  UNL1        0.1436
     38 C         140.2040  144.2585  164.4580 C.3     1  UNL1        0.0492
     39 C         139.0920  144.7761  163.5945 C.3     1  UNL1        0.0750
     40 N         139.2079  144.7068  162.1006 N.3     1  UNL1       -0.2702
     41 C         139.8365  145.8390  161.3438 C.3     1  UNL1        0.0897
     42 C         138.6953  143.5051  161.3636 C.3     1  UNL1        0.0897
@<TRIPOS>BOND
     1    24    25    1
     2    25    23    1
     3    23    15    1
     4    15    16   ar
     5    16    17   ar
     6     1    17    1
     7     1     2    1
     8     2     3   ar
     9     3     4   ar
    10     4     5   ar
    11     5     6   ar
    12     6     7    1
    13     6     8   ar
    14     8     9   ar
    15     9    10   ar
    16    10    11   ar
    17    11    12   ar
    18    12    13    1
    19    13    14    1
    20     1    26    1
    21    26    27    1
    22    26    38    1
    23    38    39    1
    24    39    40    1
    25    40    41    1
    26    40    42    1
    27    26    29    1
    28    29    30   ar
    29    30    31   ar
    30    31    32   ar
    31    32    33   ar
    32    33    34   ar
    33    34    35   ar
    34    35    36   ar
    35    36    37   ar
    36    17    18   ar
    37    18    19   ar
    38    19    21    1
    39    21    22    1
    40    19    20   ar
    41    20    15   ar
    42    12     2   ar
    43    37    29   ar
    44    10     4   ar
    45    37    33   ar
    46    27    28    1
@<TRIPOS>MOLECULE
*****
 42 46 0 0 0
SMALL
GASTEIGER

@<TRIPOS>ATOM
      1 C         142.0874  141.1683  163.1516 C.3     1  UNL1        0.0764
      2 C         142.3833  141.4897  164.5866 C.ar    1  UNL1        0.0181
      3 C         141.5422  140.8954  165.6771 C.ar    1  UNL1       -0.0009
      4 C         141.8380  141.2168  167.1121 C.ar    1  UNL1        0.0004
      5 C         140.9969  140.6225  168.2026 C.ar    1  UNL1        0.0067
      6 C         141.2928  140.9439  169.6376 C.ar    1  UNL1        0.0346
      7 BR        140.4517  140.3495  170.7282 Br      1  UNL1       -0.0490
      8 C         142.4298  141.8597  169.9820 C.ar    1  UNL1        0.0067
      9 C         143.2709  142.4540  168.8915 C.ar    1  UNL1        0.0006
     10 C         142.9750  142.1326  167.4566 C.ar    1  UNL1        0.0030
     11 C         143.8161  142.7269  166.3660 C.ar    1  UNL1        0.0366
     12 C         143.5203  142.4055  164.9310 C.ar    1  UNL1        0.1351
     13 O         144.3614  142.9999  163.8404 O.3     1  UNL1       -0.4717
     14 C         144.0354  144.3601  163.2987 C.3     1  UNL1        0.2525
     15 C         139.0728  143.5266  162.1028 C.ar    1  UNL1        0.2271
     16 C         139.9382  142.6085  162.9140 C.ar    1  UNL1        0.0540
     17 C         141.2221  142.0865  162.3404 C.ar    1  UNL1       -0.0064
     18 C         141.6406  142.4826  160.9555 C.ar    1  UNL1        0.0540
     19 C         140.7752  143.4007  160.1442 C.ar    1  UNL1        0.2272
     20 N         139.4913  143.9228  160.7179 N.ar    1  UNL1       -0.1767
     21 O         141.1937  143.7968  158.7593 O.3     1  UNL1       -0.4561
     22 C         141.3686  145.2461  158.4144 C.3     1  UNL1        0.2542
     23 O         137.7889  144.0487  162.6765 O.3     1  UNL1       -0.4602
     24 C         138.4734  144.7572  165.0806 C.3     1  UNL1        0.0512
     25 C         137.5581  144.0080  164.1581 C.3     1  UNL1        0.2072
     26 C         142.6570  139.9288  162.5278 C.3     1  UNL1        0.1186
     27 O         143.8793  140.6961  162.1189 O.3     1  UNL1       -0.3819
     28 H         144.2464  141.1547  162.8909 H       1  UNL1        0.2107
     29 C         141.4347  139.1614  162.9367 C.ar    1  UNL1        0.0369
     30 C         141.4056  138.4432  164.2532 C.ar    1  UNL1        0.0010
     31 C         140.1833  137.6758  164.6620 C.ar    1  UNL1       -0.0000
     32 C         138.9902  137.6267  163.7544 C.ar    1  UNL1        0.0031
     33 C         139.0193  138.3449  162.4379 C.ar    1  UNL1        0.0375
     34 C         138.0024  138.4752  161.3429 C.ar    1  UNL1        0.0437
     35 C         138.5961  139.3231  160.2573 C.ar    1  UNL1        0.1796
     36 O         139.9801  139.7169  160.6814 O.2     1  UNL1       -0.4507
     37 C         140.2415  139.1123  162.0290 C.ar    1  UNL1        0.1436
     38 C         143.2266  138.6892  161.9041 C.3     1  UNL1        0.0492
     39 C         144.0979  138.7942  160.6875 C.3     1  UNL1        0.0750
     40 N         143.4820  139.0468  159.3434 N.3     1  UNL1       -0.2702
     41 C         142.6002  138.0086  158.7154 C.3     1  UNL1        0.0897
     42 C         143.7478  140.3378  158.6273 C.3     1  UNL1        0.0897
@<TRIPOS>BOND
     1    24    25    1
     2    25    23    1
     3    23    15    1
     4    15    16   ar
     5    16    17   ar
     6     1    17    1
     7     1     2    1
     8     2     3   ar
     9     3     4   ar
    10     4     5   ar
    11     5     6   ar
    12     6     7    1
    13     6     8   ar
    14     8     9   ar
    15     9    10   ar
    16    10    11   ar
    17    11    12   ar
    18    12    13    1
    19    13    14    1
    20     1    26    1
    21    26    27    1
    22    26    38    1
    23    38    39    1
    24    39    40    1
    25    40    41    1
    26    40    42    1
    27    26    29    1
    28    29    30   ar
    29    30    31   ar
    30    31    32   ar
    31    32    33   ar
    32    33    34   ar
    33    34    35   ar
    34    35    36   ar
    35    36    37   ar
    36    17    18   ar
    37    18    19   ar
    38    19    21    1
    39    21    22    1
    40    19    20   ar
    41    20    15   ar
    42    12     2   ar
    43    37    29   ar
    44    10     4   ar
    45    37    33   ar
    46    27    28    1
@<TRIPOS>MOLECULE
*****
 42 46 0 0 0
SMALL
GASTEIGER

@<TRIPOS>ATOM
      1 C         140.2172  140.6005  164.5053 C.3     1  UNL1        0.0764
      2 C         140.2328  140.7185  166.0006 C.ar    1  UNL1        0.0181
      3 C         141.2613  141.5776  166.6744 C.ar    1  UNL1       -0.0009
      4 C         141.2769  141.6956  168.1698 C.ar    1  UNL1        0.0004
      5 C         142.3054  142.5548  168.8436 C.ar    1  UNL1        0.0067
      6 C         142.3210  142.6728  170.3388 C.ar    1  UNL1        0.0346
      7 BR        143.3495  143.5320  171.0127 Br      1  UNL1       -0.0490
      8 C         141.3081  141.9315  171.1602 C.ar    1  UNL1        0.0067
      9 C         140.2797  141.0724  170.4864 C.ar    1  UNL1        0.0006
     10 C         140.2641  140.9544  168.9912 C.ar    1  UNL1        0.0030
     11 C         139.2356  140.0952  168.3173 C.ar    1  UNL1        0.0366
     12 C         139.2200  139.9772  166.8221 C.ar    1  UNL1        0.1351
     13 O         138.1915  139.1180  166.1482 O.3     1  UNL1       -0.4717
     14 C         137.5310  138.0049  166.9062 C.3     1  UNL1        0.2525
     15 C         140.6834  144.2924  163.1263 C.ar    1  UNL1        0.2271
     16 C         140.8435  143.0652  163.9738 C.ar    1  UNL1        0.0540
     17 C         140.0571  141.8276  163.6578 C.ar    1  UNL1       -0.0064
     18 C         139.1105  141.8172  162.4942 C.ar    1  UNL1        0.0540
     19 C         138.9504  143.0445  161.6466 C.ar    1  UNL1        0.2272
     20 N         139.7368  144.2821  161.9627 N.ar    1  UNL1       -0.1767
     21 O         138.0038  143.0340  160.4831 O.3     1  UNL1       -0.4561
     22 C         138.4873  142.6139  159.1267 C.3     1  UNL1        0.2542
     23 O         141.4698  145.5300  163.4423 O.3     1  UNL1       -0.4602
     24 C         143.9465  144.8466  163.0564 C.3     1  UNL1        0.0512
     25 C         142.8791  145.4156  163.9434 C.3     1  UNL1        0.2072
     26 C         140.3616  139.2553  163.8576 C.3     1  UNL1        0.1186
     27 O         138.9162  139.2923  163.4583 O.3     1  UNL1       -0.3819
     28 H         138.7309  140.1222  162.9916 H       1  UNL1        0.2107
     29 C         141.8070  139.2182  164.2569 C.ar    1  UNL1        0.0369
     30 C         142.2332  138.4279  165.4584 C.ar    1  UNL1        0.0010
     31 C         143.6786  138.3908  165.8577 C.ar    1  UNL1       -0.0000
     32 C         144.6978  139.1441  165.0555 C.ar    1  UNL1        0.0031
     33 C         144.2717  139.9345  163.8540 C.ar    1  UNL1        0.0375
     34 C         145.0440  140.7707  162.8771 C.ar    1  UNL1        0.0437
     35 C         144.0759  141.3246  161.8740 C.ar    1  UNL1        0.1796
     36 O         142.7052  140.8306  162.2310 O.2     1  UNL1       -0.4507
     37 C         142.8263  139.9715  163.4547 C.ar    1  UNL1        0.1436
     38 C         140.5061  137.9100  163.2099 C.3     1  UNL1        0.0492
     39 C         140.1539  137.7328  161.7626 C.3     1  UNL1        0.0750
     40 N         141.0132  138.3518  160.7003 N.3     1  UNL1       -0.2702
     41 C         140.4779  139.4754  159.8630 C.3     1  UNL1        0.0897
     42 C         142.4078  137.8473  160.4754 C.3     1  UNL1        0.0897
@<TRIPOS>BOND
     1    24    25    1
     2    25    23    1
     3    23    15    1
     4    15    16   ar
     5    16    17   ar
     6     1    17    1
     7     1     2    1
     8     2     3   ar
     9     3     4   ar
    10     4     5   ar
    11     5     6   ar
    12     6     7    1
    13     6     8   ar
    14     8     9   ar
    15     9    10   ar
    16    10    11   ar
    17    11    12   ar
    18    12    13    1
    19    13    14    1
    20     1    26    1
    21    26    27    1
    22    26    38    1
    23    38    39    1
    24    39    40    1
    25    40    41    1
    26    40    42    1
    27    26    29    1
    28    29    30   ar
    29    30    31   ar
    30    31    32   ar
    31    32    33   ar
    32    33    34   ar
    33    34    35   ar
    34    35    36   ar
    35    36    37   ar
    36    17    18   ar
    37    18    19   ar
    38    19    21    1
    39    21    22    1
    40    19    20   ar
    41    20    15   ar
    42    12     2   ar
    43    37    29   ar
    44    10     4   ar
    45    37    33   ar
    46    27    28    1
@<TRIPOS>MOLECULE
*****
 42 46 0 0 0
SMALL
GASTEIGER

@<TRIPOS>ATOM
      1 C         142.0918  141.1519  163.1324 C.3     1  UNL1        0.0764
      2 C         142.3721  141.4689  164.5715 C.ar    1  UNL1        0.0181
      3 C         141.5315  140.8559  165.6520 C.ar    1  UNL1       -0.0009
      4 C         141.8118  141.1728  167.0912 C.ar    1  UNL1        0.0004
      5 C         140.9711  140.5599  168.1717 C.ar    1  UNL1        0.0067
      6 C         141.2515  140.8768  169.6107 C.ar    1  UNL1        0.0346
      7 BR        140.4108  140.2639  170.6913 Br      1  UNL1       -0.0490
      8 C         142.3725  141.8068  169.9693 C.ar    1  UNL1        0.0067
      9 C         143.2132  142.4197  168.8888 C.ar    1  UNL1        0.0006
     10 C         142.9328  142.1028  167.4497 C.ar    1  UNL1        0.0030
     11 C         143.7735  142.7157  166.3691 C.ar    1  UNL1        0.0366
     12 C         143.4932  142.3988  164.9301 C.ar    1  UNL1        0.1351
     13 O         144.3338  143.0118  163.8495 O.3     1  UNL1       -0.4717
     14 C         143.9994  144.3755  163.3218 C.3     1  UNL1        0.2525
     15 C         140.8464  143.4526  160.1482 C.ar    1  UNL1        0.2271
     16 C         141.7031  142.5320  160.9658 C.ar    1  UNL1        0.0540
     17 C         141.2351  142.0725  162.3148 C.ar    1  UNL1       -0.0064
     18 C         139.9104  142.5336  162.8462 C.ar    1  UNL1        0.0540
     19 C         139.0536  143.4543  162.0286 C.ar    1  UNL1        0.2272
     20 N         139.5216  143.9137  160.6796 N.ar    1  UNL1       -0.1767
     21 O         137.7289  143.9154  162.5600 O.3     1  UNL1       -0.4561
     22 C         137.5416  144.1175  164.0345 C.3     1  UNL1        0.2542
     23 O         141.3144  143.9120  158.7992 O.3     1  UNL1       -0.4602
     24 C         142.1474  145.8832  157.3258 C.3     1  UNL1        0.0512
     25 C         141.3108  145.3737  158.4618 C.3     1  UNL1        0.2072
     26 C         142.6682  139.9144  162.5110 C.3     1  UNL1        0.1186
     27 O         143.9006  140.6798  162.1297 O.3     1  UNL1       -0.3819
     28 H         144.2551  141.1319  162.9113 H       1  UNL1        0.2107
     29 C         141.4359  139.1489  162.8922 C.ar    1  UNL1        0.0369
     30 C         141.3838  138.4137  164.1986 C.ar    1  UNL1        0.0010
     31 C         140.1514  137.6482  164.5798 C.ar    1  UNL1       -0.0000
     32 C         138.9711  137.6180  163.6547 C.ar    1  UNL1        0.0031
     33 C         139.0232  138.3532  162.3483 C.ar    1  UNL1        0.0375
     34 C         138.0229  138.5039  161.2408 C.ar    1  UNL1        0.0437
     35 C         138.6369  139.3624  160.1750 C.ar    1  UNL1        0.1796
     36 O         140.0169  139.7424  160.6239 O.2     1  UNL1       -0.4507
     37 C         140.2556  139.1187  161.9671 C.ar    1  UNL1        0.1436
     38 C         143.2447  138.6768  161.8895 C.3     1  UNL1        0.0492
     39 C         144.1267  138.7854  160.6810 C.3     1  UNL1        0.0750
     40 N         143.5284  139.0985  159.3416 N.3     1  UNL1       -0.2702
     41 C         143.8632  140.3886  158.6536 C.3     1  UNL1        0.0897
     42 C         142.5952  138.1212  158.6901 C.3     1  UNL1        0.0897
@<TRIPOS>BOND
     1    24    25    1
     2    25    23    1
     3    23    15    1
     4    15    16   ar
     5    16    17   ar
     6     1    17    1
     7     1     2    1
     8     2     3   ar
     9     3     4   ar
    10     4     5   ar
    11     5     6   ar
    12     6     7    1
    13     6     8   ar
    14     8     9   ar
    15     9    10   ar
    16    10    11   ar
    17    11    12   ar
    18    12    13    1
    19    13    14    1
    20     1    26    1
    21    26    27    1
    22    26    38    1
    23    38    39    1
    24    39    40    1
    25    40    41    1
    26    40    42    1
    27    26    29    1
    28    29    30   ar
    29    30    31   ar
    30    31    32   ar
    31    32    33   ar
    32    33    34   ar
    33    34    35   ar
    34    35    36   ar
    35    36    37   ar
    36    17    18   ar
    37    18    19   ar
    38    19    21    1
    39    21    22    1
    40    19    20   ar
    41    20    15   ar
    42    12     2   ar
    43    37    29   ar
    44    10     4   ar
    45    37    33   ar
    46    27    28    1
@<TRIPOS>MOLECULE
*****
 42 46 0 0 0
SMALL
GASTEIGER

@<TRIPOS>ATOM
      1 C         140.9232  140.2269  162.1669 C.3     1  UNL1        0.0764
      2 C         140.3064  139.9402  163.5039 C.ar    1  UNL1        0.0181
      3 C         140.7085  140.7458  164.7036 C.ar    1  UNL1       -0.0009
      4 C         140.0916  140.4591  166.0406 C.ar    1  UNL1        0.0004
      5 C         140.4938  141.2646  167.2403 C.ar    1  UNL1        0.0067
      6 C         139.8769  140.9779  168.5772 C.ar    1  UNL1        0.0346
      7 BR        140.2790  141.7834  169.7770 Br      1  UNL1       -0.0490
      8 C         138.8580  139.8856  168.7144 C.ar    1  UNL1        0.0067
      9 C         138.4559  139.0801  167.5147 C.ar    1  UNL1        0.0006
     10 C         139.0727  139.3668  166.1778 C.ar    1  UNL1        0.0030
     11 C         138.6706  138.5613  164.9780 C.ar    1  UNL1        0.0366
     12 C         139.2874  138.8480  163.6411 C.ar    1  UNL1        0.1351
     13 O         138.8853  138.0424  162.4413 O.3     1  UNL1       -0.4717
     14 C         137.6656  138.4242  161.6561 C.3     1  UNL1        0.2525
     15 C         139.4387  143.8292  161.4125 C.ar    1  UNL1        0.2271
     16 C         139.7175  142.5274  162.1034 C.ar    1  UNL1        0.0540
     17 C         140.6443  141.5288  161.4760 C.ar    1  UNL1       -0.0064
     18 C         141.2923  141.8319  160.1576 C.ar    1  UNL1        0.0540
     19 C         141.0135  143.1338  159.4666 C.ar    1  UNL1        0.2272
     20 N         140.0867  144.1325  160.0940 N.ar    1  UNL1       -0.1767
     21 O         141.6615  143.4370  158.1482 O.3     1  UNL1       -0.4561
     22 C         142.1899  144.8132  157.8711 C.3     1  UNL1        0.2542
     23 O         138.5118  144.8279  162.0399 O.3     1  UNL1       -0.4602
     24 C         138.3782  144.5979  164.6243 C.3     1  UNL1        0.0512
     25 C         137.7402  144.4633  163.2734 C.3     1  UNL1        0.2072
     26 C         141.8188  139.2117  161.5210 C.3     1  UNL1        0.1186
     27 O         140.8243  139.0406  160.4111 O.3     1  UNL1       -0.3819
     28 H         140.6016  139.9086  160.0399 H       1  UNL1        0.2107
     29 C         142.8132  139.3829  162.6309 C.ar    1  UNL1        0.0369
     30 C         142.7911  138.4532  163.8077 C.ar    1  UNL1        0.0010
     31 C         143.7855  138.6244  164.9176 C.ar    1  UNL1       -0.0000
     32 C         144.8021  139.7252  164.8506 C.ar    1  UNL1        0.0031
     33 C         144.8243  140.6549  163.6737 C.ar    1  UNL1        0.0375
     34 C         145.7020  141.8228  163.3335 C.ar    1  UNL1        0.0437
     35 C         145.2501  142.3734  162.0135 C.ar    1  UNL1        0.1796
     36 O         144.0930  141.5459  161.5377 O.2     1  UNL1       -0.4507
     37 C         143.8299  140.4837  162.5638 C.ar    1  UNL1        0.1436
     38 C         142.7144  138.1966  160.8751 C.3     1  UNL1        0.0492
     39 C         142.4644  137.7687  159.4592 C.3     1  UNL1        0.0750
     40 N         143.0788  138.5341  158.3249 N.3     1  UNL1       -0.2702
     41 C         142.9480  138.0263  156.9196 C.3     1  UNL1        0.0897
     42 C         143.8241  139.8074  158.5959 C.3     1  UNL1        0.0897
@<TRIPOS>BOND
     1    24    25    1
     2    25    23    1
     3    23    15    1
     4    15    16   ar
     5    16    17   ar
     6     1    17    1
     7     1     2    1
     8     2     3   ar
     9     3     4   ar
    10     4     5   ar
    11     5     6   ar
    12     6     7    1
    13     6     8   ar
    14     8     9   ar
    15     9    10   ar
    16    10    11   ar
    17    11    12   ar
    18    12    13    1
    19    13    14    1
    20     1    26    1
    21    26    27    1
    22    26    38    1
    23    38    39    1
    24    39    40    1
    25    40    41    1
    26    40    42    1
    27    26    29    1
    28    29    30   ar
    29    30    31   ar
    30    31    32   ar
    31    32    33   ar
    32    33    34   ar
    33    34    35   ar
    34    35    36   ar
    35    36    37   ar
    36    17    18   ar
    37    18    19   ar
    38    19    21    1
    39    21    22    1
    40    19    20   ar
    41    20    15   ar
    42    12     2   ar
    43    37    29   ar
    44    10     4   ar
    45    37    33   ar
    46    27    28    1
@<TRIPOS>MOLECULE
*****
 42 46 0 0 0
SMALL
GASTEIGER

@<TRIPOS>ATOM
      1 C         142.0163  142.0582  162.6447 C.3     1  UNL1        0.0764
      2 C         142.3033  142.1472  164.1143 C.ar    1  UNL1        0.0181
      3 C         141.2359  141.8002  165.1093 C.ar    1  UNL1       -0.0009
      4 C         141.5230  141.8893  166.5790 C.ar    1  UNL1        0.0004
      5 C         140.4556  141.5423  167.5740 C.ar    1  UNL1        0.0067
      6 C         140.7426  141.6313  169.0436 C.ar    1  UNL1        0.0346
      7 BR        139.6752  141.2843  170.0387 Br      1  UNL1       -0.0490
      8 C         142.0972  142.0674  169.5181 C.ar    1  UNL1        0.0067
      9 C         143.1646  142.4144  168.5230 C.ar    1  UNL1        0.0006
     10 C         142.8775  142.3254  167.0535 C.ar    1  UNL1        0.0030
     11 C         143.9449  142.6724  166.0583 C.ar    1  UNL1        0.0366
     12 C         143.6578  142.5833  164.5888 C.ar    1  UNL1        0.1351
     13 O         144.7253  142.9303  163.5937 O.3     1  UNL1       -0.4717
     14 C         145.6931  141.8801  163.1350 C.3     1  UNL1        0.2525
     15 C         143.1913  139.4718  159.8735 C.ar    1  UNL1        0.2271
     16 C         142.9693  140.7628  160.6042 C.ar    1  UNL1        0.0540
     17 C         142.2383  140.7672  161.9140 C.ar    1  UNL1       -0.0064
     18 C         141.7294  139.4805  162.4932 C.ar    1  UNL1        0.0540
     19 C         141.9515  138.1894  161.7625 C.ar    1  UNL1        0.2272
     20 N         142.6824  138.1850  160.4527 N.ar    1  UNL1       -0.1767
     21 O         141.4426  136.9027  162.3417 O.3     1  UNL1       -0.4561
     22 C         140.9285  136.8659  163.7503 C.3     1  UNL1        0.2542
     23 O         143.9223  139.4674  158.5637 O.3     1  UNL1       -0.4602
     24 C         145.2531  140.8801  156.8364 C.3     1  UNL1        0.0512
     25 C         144.1203  140.7498  157.8110 C.3     1  UNL1        0.2072
     26 C         141.5071  143.2602  161.9058 C.3     1  UNL1        0.1186
     27 O         142.9126  143.6233  161.5280 O.3     1  UNL1       -0.3819
     28 H         143.3462  142.8570  161.1207 H       1  UNL1        0.2107
     29 C         140.1016  142.8971  162.2836 C.ar    1  UNL1        0.0369
     30 C         139.3769  141.8210  161.5309 C.ar    1  UNL1        0.0010
     31 C         137.9714  141.4579  161.9087 C.ar    1  UNL1       -0.0000
     32 C         137.2906  142.1710  163.0392 C.ar    1  UNL1        0.0031
     33 C         138.0154  143.2471  163.7919 C.ar    1  UNL1        0.0375
     34 C         137.6052  144.1174  164.9427 C.ar    1  UNL1        0.0437
     35 C         138.7572  145.0183  165.2762 C.ar    1  UNL1        0.1796
     36 O         139.8795  144.7049  164.3314 O.2     1  UNL1       -0.4507
     37 C         139.4209  143.6102  163.4141 C.ar    1  UNL1        0.1436
     38 C         140.9980  144.4622  161.1669 C.3     1  UNL1        0.0492
     39 C         140.4406  144.3110  159.7825 C.3     1  UNL1        0.0750
     40 N         141.2370  143.6036  158.7264 N.3     1  UNL1       -0.2702
     41 C         142.5208  144.1998  158.2300 C.3     1  UNL1        0.0897
     42 C         140.7496  142.3000  158.1668 C.3     1  UNL1        0.0897
@<TRIPOS>BOND
     1    24    25    1
     2    25    23    1
     3    23    15    1
     4    15    16   ar
     5    16    17   ar
     6     1    17    1
     7     1     2    1
     8     2     3   ar
     9     3     4   ar
    10     4     5   ar
    11     5     6   ar
    12     6     7    1
    13     6     8   ar
    14     8     9   ar
    15     9    10   ar
    16    10    11   ar
    17    11    12   ar
    18    12    13    1
    19    13    14    1
    20     1    26    1
    21    26    27    1
    22    26    38    1
    23    38    39    1
    24    39    40    1
    25    40    41    1
    26    40    42    1
    27    26    29    1
    28    29    30   ar
    29    30    31   ar
    30    31    32   ar
    31    32    33   ar
    32    33    34   ar
    33    34    35   ar
    34    35    36   ar
    35    36    37   ar
    36    17    18   ar
    37    18    19   ar
    38    19    21    1
    39    21    22    1
    40    19    20   ar
    41    20    15   ar
    42    12     2   ar
    43    37    29   ar
    44    10     4   ar
    45    37    33   ar
    46    27    28    1
@<TRIPOS>MOLECULE
*****
 42 46 0 0 0
SMALL
GASTEIGER

@<TRIPOS>ATOM
      1 C         140.4434  141.4441  162.7350 C.3     1  UNL1        0.0764
      2 C         140.4279  141.8948  164.1657 C.ar    1  UNL1        0.0181
      3 C         141.2576  141.1757  165.1876 C.ar    1  UNL1       -0.0009
      4 C         141.2420  141.6264  166.6183 C.ar    1  UNL1        0.0004
      5 C         142.0717  140.9073  167.6403 C.ar    1  UNL1        0.0067
      6 C         142.0560  141.3580  169.0708 C.ar    1  UNL1        0.0346
      7 BR        142.8858  140.6389  170.0929 Br      1  UNL1       -0.0490
      8 C         141.2107  142.5278  169.4794 C.ar    1  UNL1        0.0067
      9 C         140.3810  143.2470  168.4575 C.ar    1  UNL1        0.0006
     10 C         140.3967  142.7962  167.0269 C.ar    1  UNL1        0.0030
     11 C         139.5669  143.5154  166.0049 C.ar    1  UNL1        0.0366
     12 C         139.5826  143.0647  164.5743 C.ar    1  UNL1        0.1351
     13 O         138.7528  143.7838  163.5523 O.3     1  UNL1       -0.4717
     14 C         139.2631  145.0481  162.9269 C.3     1  UNL1        0.2525
     15 C         144.1726  142.0098  161.5009 C.ar    1  UNL1        0.2271
     16 C         143.0076  141.6688  162.3820 C.ar    1  UNL1        0.0540
     17 C         141.6085  141.7852  161.8539 C.ar    1  UNL1       -0.0064
     18 C         141.3744  142.2425  160.4447 C.ar    1  UNL1        0.0540
     19 C         142.5394  142.5835  159.5635 C.ar    1  UNL1        0.2272
     20 N         143.9385  142.4672  160.0916 N.ar    1  UNL1       -0.1767
     21 O         142.3053  143.0409  158.1543 O.3     1  UNL1       -0.4561
     22 C         141.6771  142.1113  157.1587 C.3     1  UNL1        0.2542
     23 O         145.5717  141.8935  162.0290 O.3     1  UNL1       -0.4602
     24 C         145.3830  140.3728  164.1272 C.3     1  UNL1        0.0512
     25 C         145.8041  141.6654  163.4933 C.3     1  UNL1        0.2072
     26 C         139.2940  140.6524  162.1856 C.3     1  UNL1        0.1186
     27 O         138.8019  141.8700  161.4607 O.3     1  UNL1       -0.3819
     28 H         139.5245  142.2475  160.9352 H       1  UNL1        0.2107
     29 C         139.7861  139.4349  162.9104 C.ar    1  UNL1        0.0369
     30 C         140.9048  138.6193  162.3331 C.ar    1  UNL1        0.0010
     31 C         141.3969  137.4018  163.0579 C.ar    1  UNL1       -0.0000
     32 C         140.7703  136.9998  164.3601 C.ar    1  UNL1        0.0031
     33 C         139.6516  137.8154  164.9375 C.ar    1  UNL1        0.0375
     34 C         138.8453  137.6662  166.1935 C.ar    1  UNL1        0.0437
     35 C         137.8549  138.7916  166.2450 C.ar    1  UNL1        0.1796
     36 O         138.0491  139.6363  165.0207 O.2     1  UNL1       -0.4507
     37 C         139.1595  139.0329  164.2126 C.ar    1  UNL1        0.1436
     38 C         138.1445  139.8607  161.6361 C.3     1  UNL1        0.0492
     39 C         137.5587  140.2163  160.3017 C.3     1  UNL1        0.0750
     40 N         138.3358  139.9503  159.0466 N.3     1  UNL1       -0.2702
     41 C         139.4016  138.8950  159.0338 C.3     1  UNL1        0.0897
     42 C         138.0470  140.7397  157.8042 C.3     1  UNL1        0.0897
@<TRIPOS>BOND
     1    24    25    1
     2    25    23    1
     3    23    15    1
     4    15    16   ar
     5    16    17   ar
     6     1    17    1
     7     1     2    1
     8     2     3   ar
     9     3     4   ar
    10     4     5   ar
    11     5     6   ar
    12     6     7    1
    13     6     8   ar
    14     8     9   ar
    15     9    10   ar
    16    10    11   ar
    17    11    12   ar
    18    12    13    1
    19    13    14    1
    20     1    26    1
    21    26    27    1
    22    26    38    1
    23    38    39    1
    24    39    40    1
    25    40    41    1
    26    40    42    1
    27    26    29    1
    28    29    30   ar
    29    30    31   ar
    30    31    32   ar
    31    32    33   ar
    32    33    34   ar
    33    34    35   ar
    34    35    36   ar
    35    36    37   ar
    36    17    18   ar
    37    18    19   ar
    38    19    21    1
    39    21    22    1
    40    19    20   ar
    41    20    15   ar
    42    12     2   ar
    43    37    29   ar
    44    10     4   ar
    45    37    33   ar
    46    27    28    1
