@<TRIPOS>MOLECULE
*****
 41 44 0 0 0
SMALL
GASTEIGER

@<TRIPOS>ATOM
      1 O         141.0499  136.8536  163.0758 O.2     1  UNL1       -0.2749
      2 C         139.9392  137.8503  163.2274 C.2     1  UNL1        0.2256
      3 N         139.4851  138.6529  162.0444 N.am    1  UNL1       -0.2766
      4 C         138.3744  139.6496  162.1959 C.3     1  UNL1        0.1126
      5 C         137.9203  140.4522  161.0129 C.3     1  UNL1        0.1173
      6 N         138.5769  140.2582  159.6783 N.3     1  UNL1       -0.1520
      7 C         139.6876  139.2615  159.5267 C.3     1  UNL1        0.1173
      8 C         140.1417  138.4589  160.7097 C.3     1  UNL1        0.1126
      9 C         139.2826  138.0443  164.5620 C.3     1  UNL1        0.0811
     10 C         138.2724  137.6204  165.5866 C.3     1  UNL1        0.0142
     11 C         139.1555  138.8043  165.8489 C.3     1  UNL1        0.0314
     12 C         139.5919  139.9266  166.7434 C.ar    1  UNL1       -0.0220
     13 C         140.2674  141.1318  166.1594 C.ar    1  UNL1       -0.0043
     14 C         140.7038  142.2540  167.0539 C.ar    1  UNL1        0.0035
     15 C         140.4648  142.1710  168.5324 C.ar    1  UNL1        0.0714
     16 C         139.7893  140.9657  169.1164 C.ar    1  UNL1        0.0035
     17 C         139.3529  139.8435  168.2219 C.ar    1  UNL1       -0.0043
     18 C         140.9012  143.2933  169.4269 C.3     1  UNL1        0.4186
     19 F         141.3376  144.4155  170.3213 F       1  UNL1       -0.1659
     20 F         141.8716  142.3737  170.1072 F       1  UNL1       -0.1659
     21 F         139.9309  144.2128  168.7466 F       1  UNL1       -0.1659
     22 S         138.1229  141.0608  158.4953 S.O2    1  UNL1        0.0634
     23 O         138.3285  142.3259  159.2746 O.2     1  UNL1       -0.1528
     24 O         137.9172  139.7958  157.7160 O.2     1  UNL1       -0.1528
     25 C         137.6688  141.8634  157.3121 C.ar    1  UNL1        0.1219
     26 C         138.3382  143.1660  156.9879 C.ar    1  UNL1        0.0182
     27 C         137.8841  143.9685  155.8049 C.ar    1  UNL1        0.0140
     28 C         136.7605  143.4685  154.9460 C.ar    1  UNL1        0.0023
     29 C         136.0911  142.1659  155.2702 C.ar    1  UNL1        0.0725
     30 C         136.5452  141.3634  156.4533 C.ar    1  UNL1        0.0237
     31 C         134.9676  141.6659  154.4113 C.3     1  UNL1        0.4186
     32 F         133.8441  141.1658  153.5525 F       1  UNL1       -0.1659
     33 F         135.3283  142.6686  153.3557 F       1  UNL1       -0.1659
     34 F         134.6069  140.6631  155.4670 F       1  UNL1       -0.1659
     35 C         138.5535  145.2711  155.4806 C.3     1  UNL1        0.2288
     36 O         137.7780  146.3666  154.8110 O.3     1  UNL1       -0.3730
     37 H         136.8666  146.0714  154.6592 H       1  UNL1        0.2111
     38 C         139.9984  145.4782  155.8261 C.3     1  UNL1        0.4258
     39 F         141.4433  145.6853  156.1715 F       1  UNL1       -0.1672
     40 F         140.3972  144.5628  154.7067 F       1  UNL1       -0.1672
     41 F         139.5996  146.3936  156.9454 F       1  UNL1       -0.1672
@<TRIPOS>BOND
     1     1     2    2
     2     9     2    1
     3     9    10    1
     4    10    11    1
     5    11    12    1
     6    12    13   ar
     7    13    14   ar
     8    14    15   ar
     9    15    18    1
    10    18    19    1
    11    18    20    1
    12    18    21    1
    13    15    16   ar
    14    16    17   ar
    15     2     3   am
    16     3     4    1
    17     4     5    1
    18     5     6    1
    19     6    22    1
    20    22    23    2
    21    22    24    2
    22    22    25    1
    23    25    26   ar
    24    26    27   ar
    25    27    35    1
    26    35    36    1
    27    35    38    1
    28    38    39    1
    29    38    40    1
    30    38    41    1
    31    27    28   ar
    32    28    29   ar
    33    29    31    1
    34    31    32    1
    35    31    33    1
    36    31    34    1
    37    29    30   ar
    38     6     7    1
    39     7     8    1
    40    11     9    1
    41    17    12   ar
    42     8     3    1
    43    30    25   ar
    44    36    37    1
@<TRIPOS>MOLECULE
*****
 41 44 0 0 0
SMALL
GASTEIGER

@<TRIPOS>ATOM
      1 O         144.7705  138.8706  155.6703 O.2     1  UNL1       -0.2749
      2 C         143.5193  138.1664  156.1048 C.2     1  UNL1        0.2256
      3 N         142.7764  138.6380  157.3195 N.am    1  UNL1       -0.2766
      4 C         141.5252  137.9338  157.7540 C.3     1  UNL1        0.1126
      5 C         140.7824  138.4054  158.9687 C.3     1  UNL1        0.1173
      6 N         141.2907  139.5812  159.7492 N.3     1  UNL1       -0.1520
      7 C         142.5418  140.2854  159.3148 C.3     1  UNL1        0.1173
      8 C         143.2847  139.8138  158.1000 C.3     1  UNL1        0.1126
      9 C         143.0110  136.9906  155.3243 C.3     1  UNL1        0.0811
     10 C         142.3369  136.4338  154.1055 C.3     1  UNL1        0.0142
     11 C         142.8047  135.5108  155.1914 C.3     1  UNL1        0.0314
     12 C         142.9557  134.1235  155.7417 C.ar    1  UNL1       -0.0220
     13 C         143.9961  133.8393  156.7842 C.ar    1  UNL1       -0.0043
     14 C         144.1471  132.4521  157.3344 C.ar    1  UNL1        0.0035
     15 C         143.2577  131.3491  156.8421 C.ar    1  UNL1        0.0714
     16 C         142.2173  131.6333  155.7997 C.ar    1  UNL1        0.0035
     17 C         142.0663  133.0205  155.2495 C.ar    1  UNL1       -0.0043
     18 C         143.4087  129.9618  157.3924 C.3     1  UNL1        0.4186
     19 F         143.5598  128.5746  157.9427 F       1  UNL1       -0.1659
     20 F         142.3453  129.4737  156.4538 F       1  UNL1       -0.1659
     21 F         144.4721  130.4499  158.3310 F       1  UNL1       -0.1659
     22 S         140.5479  140.0528  160.9640 S.O2    1  UNL1        0.0634
     23 O         141.3936  141.2912  161.0004 O.2     1  UNL1       -0.1528
     24 O         139.7022  138.8145  160.9275 O.2     1  UNL1       -0.1528
     25 C         139.8050  140.5244  162.1788 C.ar    1  UNL1        0.1219
     26 C         139.3955  141.9626  162.2962 C.ar    1  UNL1        0.0182
     27 C         138.6527  142.4341  163.5110 C.ar    1  UNL1        0.0140
     28 C         138.3193  141.4674  164.6084 C.ar    1  UNL1        0.0023
     29 C         138.7287  140.0292  164.4910 C.ar    1  UNL1        0.0725
     30 C         139.4716  139.5577  163.2762 C.ar    1  UNL1        0.0237
     31 C         138.3953  139.0625  165.5884 C.3     1  UNL1        0.4186
     32 F         138.0619  138.0958  166.6858 F       1  UNL1       -0.1659
     33 F         138.5975  137.9173  164.6410 F       1  UNL1       -0.1659
     34 F         138.1931  140.2077  166.5358 F       1  UNL1       -0.1659
     35 C         138.2432  143.8724  163.6284 C.3     1  UNL1        0.2288
     36 O         137.6635  144.5863  162.4435 O.3     1  UNL1       -0.3730
     37 H         137.6227  143.9790  161.6882 H       1  UNL1        0.2111
     38 C         138.4134  144.5967  164.9309 C.3     1  UNL1        0.4258
     39 F         138.5837  145.3210  166.2333 F       1  UNL1       -0.1672
     40 F         139.8658  144.8101  164.6224 F       1  UNL1       -0.1672
     41 F         136.9611  144.3834  165.2394 F       1  UNL1       -0.1672
@<TRIPOS>BOND
     1     1     2    2
     2     9     2    1
     3     9    10    1
     4    10    11    1
     5    11    12    1
     6    12    13   ar
     7    13    14   ar
     8    14    15   ar
     9    15    18    1
    10    18    19    1
    11    18    20    1
    12    18    21    1
    13    15    16   ar
    14    16    17   ar
    15     2     3   am
    16     3     4    1
    17     4     5    1
    18     5     6    1
    19     6    22    1
    20    22    23    2
    21    22    24    2
    22    22    25    1
    23    25    26   ar
    24    26    27   ar
    25    27    35    1
    26    35    36    1
    27    35    38    1
    28    38    39    1
    29    38    40    1
    30    38    41    1
    31    27    28   ar
    32    28    29   ar
    33    29    31    1
    34    31    32    1
    35    31    33    1
    36    31    34    1
    37    29    30   ar
    38     6     7    1
    39     7     8    1
    40    11     9    1
    41    17    12   ar
    42     8     3    1
    43    30    25   ar
    44    36    37    1
@<TRIPOS>MOLECULE
*****
 41 44 0 0 0
SMALL
GASTEIGER

@<TRIPOS>ATOM
      1 O         144.6172  140.0579  157.7128 O.2     1  UNL1       -0.2749
      2 C         143.2903  139.4531  158.0646 C.2     1  UNL1        0.2256
      3 N         142.7564  139.5765  159.4608 N.am    1  UNL1       -0.2766
      4 C         141.4295  138.9717  159.8126 C.3     1  UNL1        0.1126
      5 C         140.8956  139.0951  161.2089 C.3     1  UNL1        0.1173
      6 N         141.6885  139.8233  162.2534 N.3     1  UNL1       -0.1520
      7 C         143.0152  140.4281  161.9017 C.3     1  UNL1        0.1173
      8 C         143.5493  140.3047  160.5054 C.3     1  UNL1        0.1126
      9 C         142.4975  138.7248  157.0200 C.3     1  UNL1        0.0811
     10 C         141.5377  138.7472  155.8676 C.3     1  UNL1        0.0142
     11 C         142.0841  137.4412  156.3634 C.3     1  UNL1        0.0314
     12 C         142.1608  135.9460  156.2705 C.ar    1  UNL1       -0.0220
     13 C         141.2668  135.2067  155.3196 C.ar    1  UNL1       -0.0043
     14 C         141.3436  133.7116  155.2268 C.ar    1  UNL1        0.0035
     15 C         142.3144  132.9557  156.0849 C.ar    1  UNL1        0.0714
     16 C         143.2084  133.6950  157.0357 C.ar    1  UNL1        0.0035
     17 C         143.1316  135.1901  157.1285 C.ar    1  UNL1       -0.0043
     18 C         142.3912  131.4605  155.9920 C.3     1  UNL1        0.4186
     19 F         142.4680  129.9654  155.8991 F       1  UNL1       -0.1659
     20 F         142.8601  131.3961  157.4153 F       1  UNL1       -0.1659
     21 F         141.9223  131.5249  154.5686 F       1  UNL1       -0.1659
     22 S         141.1545  139.9467  163.6497 S.O2    1  UNL1        0.0634
     23 O         141.3935  141.4271  163.6103 O.2     1  UNL1       -0.1528
     24 O         140.9156  138.4665  163.6892 O.2     1  UNL1       -0.1528
     25 C         140.6205  140.0701  165.0461 C.ar    1  UNL1        0.1219
     26 C         141.2673  141.0143  166.0157 C.ar    1  UNL1        0.0182
     27 C         140.7333  141.1377  167.4119 C.ar    1  UNL1        0.0140
     28 C         139.5526  140.3168  167.8386 C.ar    1  UNL1        0.0023
     29 C         138.9058  139.3726  166.8690 C.ar    1  UNL1        0.0725
     30 C         139.4398  139.2493  165.4728 C.ar    1  UNL1        0.0237
     31 C         137.7251  138.5517  167.2957 C.3     1  UNL1        0.4186
     32 F         136.5444  137.7309  167.7224 F       1  UNL1       -0.1659
     33 F         137.7482  137.8340  165.9788 F       1  UNL1       -0.1659
     34 F         137.7020  139.2695  168.6126 F       1  UNL1       -0.1659
     35 C         141.3800  142.0819  168.3816 C.3     1  UNL1        0.2288
     36 O         142.8501  142.3645  168.2862 O.3     1  UNL1       -0.3730
     37 H         143.2291  141.8602  167.5494 H       1  UNL1        0.2111
     38 C         140.5567  142.7435  169.4467 C.3     1  UNL1        0.4258
     39 F         139.7334  143.4052  170.5117 F       1  UNL1       -0.1672
     40 F         141.0818  141.7684  170.4583 F       1  UNL1       -0.1672
     41 F         140.0316  143.7187  168.4350 F       1  UNL1       -0.1672
@<TRIPOS>BOND
     1     1     2    2
     2     9     2    1
     3     9    10    1
     4    10    11    1
     5    11    12    1
     6    12    13   ar
     7    13    14   ar
     8    14    15   ar
     9    15    18    1
    10    18    19    1
    11    18    20    1
    12    18    21    1
    13    15    16   ar
    14    16    17   ar
    15     2     3   am
    16     3     4    1
    17     4     5    1
    18     5     6    1
    19     6    22    1
    20    22    23    2
    21    22    24    2
    22    22    25    1
    23    25    26   ar
    24    26    27   ar
    25    27    35    1
    26    35    36    1
    27    35    38    1
    28    38    39    1
    29    38    40    1
    30    38    41    1
    31    27    28   ar
    32    28    29   ar
    33    29    31    1
    34    31    32    1
    35    31    33    1
    36    31    34    1
    37    29    30   ar
    38     6     7    1
    39     7     8    1
    40    11     9    1
    41    17    12   ar
    42     8     3    1
    43    30    25   ar
    44    36    37    1
@<TRIPOS>MOLECULE
*****
 41 44 0 0 0
SMALL
GASTEIGER

@<TRIPOS>ATOM
      1 O         138.1471  143.4581  156.0414 O.2     1  UNL1       -0.2749
      2 C         137.5988  142.1998  156.6465 C.2     1  UNL1        0.2256
      3 N         137.8750  141.8772  158.0851 N.am    1  UNL1       -0.2766
      4 C         137.3267  140.6189  158.6902 C.3     1  UNL1        0.1126
      5 C         137.6028  140.2963  160.1288 C.3     1  UNL1        0.1173
      6 N         138.4273  141.2320  160.9624 N.3     1  UNL1       -0.1520
      7 C         138.9756  142.4902  160.3574 C.3     1  UNL1        0.1173
      8 C         138.6995  142.8129  158.9187 C.3     1  UNL1        0.1126
      9 C         136.7743  141.2642  155.8130 C.3     1  UNL1        0.0811
     10 C         136.6550  140.3189  154.6545 C.3     1  UNL1        0.0142
     11 C         135.4657  140.5889  155.5278 C.3     1  UNL1        0.0314
     12 C         134.0234  140.3549  155.8674 C.ar    1  UNL1       -0.0220
     13 C         133.6212  139.1235  156.6234 C.ar    1  UNL1       -0.0043
     14 C         132.1790  138.8896  156.9630 C.ar    1  UNL1        0.0035
     15 C         131.1391  139.8870  156.5464 C.ar    1  UNL1        0.0714
     16 C         131.5413  141.1185  155.7903 C.ar    1  UNL1        0.0035
     17 C         132.9835  141.3524  155.4508 C.ar    1  UNL1       -0.0043
     18 C         129.6968  139.6530  156.8860 C.3     1  UNL1        0.4186
     19 F         128.2546  139.4190  157.2256 F       1  UNL1       -0.1659
     20 F         129.3179  140.8924  156.1309 F       1  UNL1       -0.1659
     21 F         130.0757  138.4136  157.6411 F       1  UNL1       -0.1659
     22 S         138.7035  140.9093  162.4010 S.O2    1  UNL1        0.0634
     23 O         137.3074  141.3226  162.7617 O.2     1  UNL1       -0.1528
     24 O         140.0996  140.4961  162.0403 O.2     1  UNL1       -0.1528
     25 C         138.9797  140.5867  163.8397 C.ar    1  UNL1        0.1219
     26 C         139.9095  141.4523  164.6372 C.ar    1  UNL1        0.0182
     27 C         140.1857  141.1296  166.0758 C.ar    1  UNL1        0.0140
     28 C         139.5321  139.9414  166.7168 C.ar    1  UNL1        0.0023
     29 C         138.6023  139.0758  165.9192 C.ar    1  UNL1        0.0725
     30 C         138.3261  139.3985  164.4806 C.ar    1  UNL1        0.0237
     31 C         137.9487  137.8876  166.5602 C.3     1  UNL1        0.4186
     32 F         137.2951  136.6993  167.2012 F       1  UNL1       -0.1659
     33 F         137.3345  138.7835  167.5947 F       1  UNL1       -0.1659
     34 F         138.5629  136.9917  165.5258 F       1  UNL1       -0.1659
     35 C         141.1156  141.9952  166.8735 C.3     1  UNL1        0.2288
     36 O         142.5793  142.0236  166.5468 O.3     1  UNL1       -0.3730
     37 H         142.7554  141.4304  165.7999 H       1  UNL1        0.2111
     38 C         140.5817  142.8324  167.9978 C.3     1  UNL1        0.4258
     39 F         140.0477  143.6695  169.1221 F       1  UNL1       -0.1672
     40 F         139.8317  143.6782  167.0118 F       1  UNL1       -0.1672
     41 F         141.3317  141.9866  168.9838 F       1  UNL1       -0.1672
@<TRIPOS>BOND
     1     1     2    2
     2     9     2    1
     3     9    10    1
     4    10    11    1
     5    11    12    1
     6    12    13   ar
     7    13    14   ar
     8    14    15   ar
     9    15    18    1
    10    18    19    1
    11    18    20    1
    12    18    21    1
    13    15    16   ar
    14    16    17   ar
    15     2     3   am
    16     3     4    1
    17     4     5    1
    18     5     6    1
    19     6    22    1
    20    22    23    2
    21    22    24    2
    22    22    25    1
    23    25    26   ar
    24    26    27   ar
    25    27    35    1
    26    35    36    1
    27    35    38    1
    28    38    39    1
    29    38    40    1
    30    38    41    1
    31    27    28   ar
    32    28    29   ar
    33    29    31    1
    34    31    32    1
    35    31    33    1
    36    31    34    1
    37    29    30   ar
    38     6     7    1
    39     7     8    1
    40    11     9    1
    41    17    12   ar
    42     8     3    1
    43    30    25   ar
    44    36    37    1
@<TRIPOS>MOLECULE
*****
 41 44 0 0 0
SMALL
GASTEIGER

@<TRIPOS>ATOM
      1 O         140.7751  137.0428  163.8248 O.2     1  UNL1       -0.2749
      2 C         139.8085  138.1885  163.8815 C.2     1  UNL1        0.2256
      3 N         139.3995  138.8880  162.6192 N.am    1  UNL1       -0.2766
      4 C         138.4329  140.0337  162.6760 C.3     1  UNL1        0.1126
      5 C         138.0239  140.7331  161.4137 C.3     1  UNL1        0.1173
      6 N         138.5815  140.2870  160.0946 N.3     1  UNL1       -0.1520
      7 C         139.5481  139.1413  160.0378 C.3     1  UNL1        0.1173
      8 C         139.9571  138.4418  161.3001 C.3     1  UNL1        0.1126
      9 C         139.2509  138.6347  165.2006 C.3     1  UNL1        0.0811
     10 C         138.1359  138.6422  166.2039 C.3     1  UNL1        0.0142
     11 C         139.4002  139.3999  166.4820 C.3     1  UNL1        0.0314
     12 C         140.2164  140.2792  167.3825 C.ar    1  UNL1       -0.0220
     13 C         141.4633  140.9322  166.8641 C.ar    1  UNL1       -0.0043
     14 C         142.2794  141.8114  167.7645 C.ar    1  UNL1        0.0035
     15 C         141.8486  142.0378  169.1833 C.ar    1  UNL1        0.0714
     16 C         140.6017  141.3848  169.7018 C.ar    1  UNL1        0.0035
     17 C         139.7855  140.5056  168.8013 C.ar    1  UNL1       -0.0043
     18 C         142.6648  142.9171  170.0838 C.3     1  UNL1        0.4186
     19 F         143.4809  143.7964  170.9842 F       1  UNL1       -0.1659
     20 F         143.8162  141.9622  169.9727 F       1  UNL1       -0.1659
     21 F         141.5133  143.8719  170.1949 F       1  UNL1       -0.1659
     22 S         138.1725  140.9864  158.8323 S.O2    1  UNL1        0.0634
     23 O         138.1475  142.2949  159.5653 O.2     1  UNL1       -0.1528
     24 O         138.1975  139.6780  158.0992 O.2     1  UNL1       -0.1528
     25 C         137.7635  141.6859  157.5699 C.ar    1  UNL1        0.1219
     26 C         136.6312  141.1469  156.7469 C.ar    1  UNL1        0.0182
     27 C         136.2222  141.8464  155.4846 C.ar    1  UNL1        0.0140
     28 C         136.9457  143.0847  155.0452 C.ar    1  UNL1        0.0023
     29 C         138.0780  143.6237  155.8681 C.ar    1  UNL1        0.0725
     30 C         138.4870  142.9242  157.1305 C.ar    1  UNL1        0.0237
     31 C         138.8014  144.8621  155.4287 C.3     1  UNL1        0.4186
     32 F         139.5249  146.1004  154.9893 F       1  UNL1       -0.1659
     33 F         140.1142  144.1585  155.6073 F       1  UNL1       -0.1659
     34 F         137.4887  145.5656  155.2502 F       1  UNL1       -0.1659
     35 C         135.0898  141.3074  154.6616 C.3     1  UNL1        0.2288
     36 O         134.8520  141.8336  153.2773 O.3     1  UNL1       -0.3730
     37 H         135.5143  142.5117  153.0709 H       1  UNL1        0.2111
     38 C         134.1952  140.2423  155.2231 C.3     1  UNL1        0.4258
     39 F         133.3006  139.1772  155.7846 F       1  UNL1       -0.1672
     40 F         135.0579  139.1874  154.5963 F       1  UNL1       -0.1672
     41 F         133.3325  141.2973  155.8499 F       1  UNL1       -0.1672
@<TRIPOS>BOND
     1     1     2    2
     2     9     2    1
     3     9    10    1
     4    10    11    1
     5    11    12    1
     6    12    13   ar
     7    13    14   ar
     8    14    15   ar
     9    15    18    1
    10    18    19    1
    11    18    20    1
    12    18    21    1
    13    15    16   ar
    14    16    17   ar
    15     2     3   am
    16     3     4    1
    17     4     5    1
    18     5     6    1
    19     6    22    1
    20    22    23    2
    21    22    24    2
    22    22    25    1
    23    25    26   ar
    24    26    27   ar
    25    27    35    1
    26    35    36    1
    27    35    38    1
    28    38    39    1
    29    38    40    1
    30    38    41    1
    31    27    28   ar
    32    28    29   ar
    33    29    31    1
    34    31    32    1
    35    31    33    1
    36    31    34    1
    37    29    30   ar
    38     6     7    1
    39     7     8    1
    40    11     9    1
    41    17    12   ar
    42     8     3    1
    43    30    25   ar
    44    36    37    1
@<TRIPOS>MOLECULE
*****
 41 44 0 0 0
SMALL
GASTEIGER

@<TRIPOS>ATOM
      1 O         141.1447  136.7781  163.2493 O.2     1  UNL1       -0.2749
      2 C         141.3175  138.2553  163.0538 C.2     1  UNL1        0.2256
      3 N         140.6194  138.9488  161.9217 N.am    1  UNL1       -0.2766
      4 C         140.7922  140.4259  161.7263 C.3     1  UNL1        0.1126
      5 C         140.0941  141.1194  160.5942 C.3     1  UNL1        0.1173
      6 N         139.2231  140.3358  159.6575 N.3     1  UNL1       -0.1520
      7 C         139.0503  138.8587  159.8529 C.3     1  UNL1        0.1173
      8 C         139.7484  138.1651  160.9851 C.3     1  UNL1        0.1126
      9 C         142.1885  139.0389  163.9905 C.3     1  UNL1        0.0811
     10 C         143.5433  139.5467  164.3861 C.3     1  UNL1        0.0142
     11 C         142.3422  139.8883  165.2172 C.3     1  UNL1        0.0314
     12 C         141.7374  140.5760  166.4053 C.ar    1  UNL1       -0.0220
     13 C         142.3734  141.8171  166.9575 C.ar    1  UNL1       -0.0043
     14 C         141.7686  142.5047  168.1455 C.ar    1  UNL1        0.0035
     15 C         140.5279  141.9512  168.7813 C.ar    1  UNL1        0.0714
     16 C         139.8919  140.7100  168.2290 C.ar    1  UNL1        0.0035
     17 C         140.4967  140.0224  167.0410 C.ar    1  UNL1       -0.0043
     18 C         139.9231  142.6388  169.9694 C.3     1  UNL1        0.4186
     19 F         139.3184  143.3264  171.1574 F       1  UNL1       -0.1659
     20 F         140.8788  143.7817  169.7944 F       1  UNL1       -0.1659
     21 F         138.9675  141.4960  170.1444 F       1  UNL1       -0.1659
     22 S         138.5250  141.0293  158.5255 S.O2    1  UNL1        0.0634
     23 O         137.3454  140.1182  158.6947 O.2     1  UNL1       -0.1528
     24 O         139.7045  141.9403  158.3562 O.2     1  UNL1       -0.1528
     25 C         137.8268  141.7229  157.3933 C.ar    1  UNL1        0.1219
     26 C         136.6617  141.0652  156.7152 C.ar    1  UNL1        0.0182
     27 C         135.9636  141.7587  155.5831 C.ar    1  UNL1        0.0140
     28 C         136.4307  143.1100  155.1292 C.ar    1  UNL1        0.0023
     29 C         137.5958  143.7676  155.8073 C.ar    1  UNL1        0.0725
     30 C         138.2939  143.0741  156.9394 C.ar    1  UNL1        0.0237
     31 C         138.0629  145.1188  155.3534 C.3     1  UNL1        0.4186
     32 F         138.5299  146.4701  154.8994 F       1  UNL1       -0.1659
     33 F         136.9486  145.1670  154.3503 F       1  UNL1       -0.1659
     34 F         139.1772  145.0706  156.3564 F       1  UNL1       -0.1659
     35 C         134.7984  141.1011  154.9049 C.3     1  UNL1        0.2288
     36 O         134.3178  141.6100  153.5783 O.3     1  UNL1       -0.3730
     37 H         134.8654  142.3618  153.3028 H       1  UNL1        0.2111
     38 C         134.1139  139.9346  155.5535 C.3     1  UNL1        0.4258
     39 F         133.4293  138.7680  156.2020 F       1  UNL1       -0.1672
     40 F         133.2711  140.8775  156.3600 F       1  UNL1       -0.1672
     41 F         134.9567  138.9916  154.7469 F       1  UNL1       -0.1672
@<TRIPOS>BOND
     1     1     2    2
     2     9     2    1
     3     9    10    1
     4    10    11    1
     5    11    12    1
     6    12    13   ar
     7    13    14   ar
     8    14    15   ar
     9    15    18    1
    10    18    19    1
    11    18    20    1
    12    18    21    1
    13    15    16   ar
    14    16    17   ar
    15     2     3   am
    16     3     4    1
    17     4     5    1
    18     5     6    1
    19     6    22    1
    20    22    23    2
    21    22    24    2
    22    22    25    1
    23    25    26   ar
    24    26    27   ar
    25    27    35    1
    26    35    36    1
    27    35    38    1
    28    38    39    1
    29    38    40    1
    30    38    41    1
    31    27    28   ar
    32    28    29   ar
    33    29    31    1
    34    31    32    1
    35    31    33    1
    36    31    34    1
    37    29    30   ar
    38     6     7    1
    39     7     8    1
    40    11     9    1
    41    17    12   ar
    42     8     3    1
    43    30    25   ar
    44    36    37    1
@<TRIPOS>MOLECULE
*****
 41 44 0 0 0
SMALL
GASTEIGER

@<TRIPOS>ATOM
      1 O         140.5913  138.0486  154.9902 O.2     1  UNL1       -0.2749
      2 C         141.5091  137.7309  156.1334 C.2     1  UNL1        0.2256
      3 N         141.1171  138.0973  157.5341 N.am    1  UNL1       -0.2766
      4 C         142.0349  137.7796  158.6773 C.3     1  UNL1        0.1126
      5 C         141.6429  138.1461  160.0780 C.3     1  UNL1        0.1173
      6 N         140.3331  138.8302  160.3356 N.3     1  UNL1       -0.1520
      7 C         139.4153  139.1479  159.1925 C.3     1  UNL1        0.1173
      8 C         139.8073  138.7815  157.7917 C.3     1  UNL1        0.1126
      9 C         142.8189  137.0467  155.8758 C.3     1  UNL1        0.0811
     10 C         144.2660  137.1155  155.4870 C.3     1  UNL1        0.0142
     11 C         143.6404  135.7930  155.8184 C.3     1  UNL1        0.0314
     12 C         143.7535  134.3056  155.9766 C.ar    1  UNL1       -0.0220
     13 C         143.3742  133.3998  154.8427 C.ar    1  UNL1       -0.0043
     14 C         143.4873  131.9125  155.0009 C.ar    1  UNL1        0.0035
     15 C         143.9798  131.3310  156.2930 C.ar    1  UNL1        0.0714
     16 C         144.3591  132.2368  157.4268 C.ar    1  UNL1        0.0035
     17 C         144.2460  133.7241  157.2686 C.ar    1  UNL1       -0.0043
     18 C         144.0929  129.8436  156.4511 C.3     1  UNL1        0.4186
     19 F         144.2060  128.3563  156.6093 F       1  UNL1       -0.1659
     20 F         142.9992  129.8695  157.4774 F       1  UNL1       -0.1659
     21 F         145.1865  129.8177  155.4249 F       1  UNL1       -0.1659
     22 S         139.9411  139.1967  161.7362 S.O2    1  UNL1        0.0634
     23 O         138.6755  138.4048  161.5893 O.2     1  UNL1       -0.1528
     24 O         141.2065  139.9885  161.8833 O.2     1  UNL1       -0.1528
     25 C         139.5490  139.5632  163.1370 C.ar    1  UNL1        0.1219
     26 C         139.7570  140.9638  163.6319 C.ar    1  UNL1        0.0182
     27 C         139.3650  141.3302  165.0326 C.ar    1  UNL1        0.0140
     28 C         138.7650  140.2961  165.9384 C.ar    1  UNL1        0.0023
     29 C         138.5571  138.8954  165.4435 C.ar    1  UNL1        0.0725
     30 C         138.9491  138.5290  164.0428 C.ar    1  UNL1        0.0237
     31 C         137.9571  137.8612  166.3493 C.3     1  UNL1        0.4186
     32 F         137.3572  136.8271  167.2552 F       1  UNL1       -0.1659
     33 F         137.3110  138.9457  167.1595 F       1  UNL1       -0.1659
     34 F         138.6033  136.7768  165.5392 F       1  UNL1       -0.1659
     35 C         139.5730  142.7309  165.5276 C.3     1  UNL1        0.2288
     36 O         140.2765  142.9692  166.8307 O.3     1  UNL1       -0.3730
     37 H         140.5294  142.1184  167.2219 H       1  UNL1        0.2111
     38 C         139.0773  143.8933  164.7193 C.3     1  UNL1        0.4258
     39 F         138.5817  145.0557  163.9111 F       1  UNL1       -0.1672
     40 F         137.6728  143.3820  164.8453 F       1  UNL1       -0.1672
     41 F         140.4818  144.4046  164.5934 F       1  UNL1       -0.1672
@<TRIPOS>BOND
     1     1     2    2
     2     9     2    1
     3     9    10    1
     4    10    11    1
     5    11    12    1
     6    12    13   ar
     7    13    14   ar
     8    14    15   ar
     9    15    18    1
    10    18    19    1
    11    18    20    1
    12    18    21    1
    13    15    16   ar
    14    16    17   ar
    15     2     3   am
    16     3     4    1
    17     4     5    1
    18     5     6    1
    19     6    22    1
    20    22    23    2
    21    22    24    2
    22    22    25    1
    23    25    26   ar
    24    26    27   ar
    25    27    35    1
    26    35    36    1
    27    35    38    1
    28    38    39    1
    29    38    40    1
    30    38    41    1
    31    27    28   ar
    32    28    29   ar
    33    29    31    1
    34    31    32    1
    35    31    33    1
    36    31    34    1
    37    29    30   ar
    38     6     7    1
    39     7     8    1
    40    11     9    1
    41    17    12   ar
    42     8     3    1
    43    30    25   ar
    44    36    37    1
@<TRIPOS>MOLECULE
*****
 41 44 0 0 0
SMALL
GASTEIGER

@<TRIPOS>ATOM
      1 O         138.5244  137.1064  155.7155 O.2     1  UNL1       -0.2749
      2 C         139.8897  137.4642  156.2236 C.2     1  UNL1        0.2256
      3 N         140.0385  138.4541  157.3407 N.am    1  UNL1       -0.2766
      4 C         141.4038  138.8119  157.8489 C.3     1  UNL1        0.1126
      5 C         141.5526  139.8017  158.9660 C.3     1  UNL1        0.1173
      6 N         140.3363  140.4338  159.5750 N.3     1  UNL1       -0.1520
      7 C         138.9711  140.0761  159.0669 C.3     1  UNL1        0.1173
      8 C         138.8222  139.0862  157.9498 C.3     1  UNL1        0.1126
      9 C         141.1060  136.8321  155.6146 C.3     1  UNL1        0.0811
     10 C         142.2134  136.8550  154.6031 C.3     1  UNL1        0.0142
     11 C         142.1054  135.7144  155.5713 C.3     1  UNL1        0.0314
     12 C         142.6202  134.4106  156.1054 C.ar    1  UNL1       -0.0220
     13 C         143.7788  134.3952  157.0578 C.ar    1  UNL1       -0.0043
     14 C         144.2935  133.0914  157.5919 C.ar    1  UNL1        0.0035
     15 C         143.6494  131.8030  157.1734 C.ar    1  UNL1        0.0714
     16 C         142.4908  131.8183  156.2210 C.ar    1  UNL1        0.0035
     17 C         141.9761  133.1221  155.6869 C.ar    1  UNL1       -0.0043
     18 C         144.1642  130.4991  157.7075 C.3     1  UNL1        0.4186
     19 F         144.6789  129.1954  158.2415 F       1  UNL1       -0.1659
     20 F         143.0053  129.7840  157.0785 F       1  UNL1       -0.1659
     21 F         145.3230  131.2143  158.3365 F       1  UNL1       -0.1659
     22 S         140.4851  141.4237  160.6921 S.O2    1  UNL1        0.0634
     23 O         141.6095  142.0878  159.9540 O.2     1  UNL1       -0.1528
     24 O         139.3608  140.7596  161.4303 O.2     1  UNL1       -0.1528
     25 C         140.6339  142.4136  161.8094 C.ar    1  UNL1        0.1219
     26 C         141.9779  143.0073  162.1112 C.ar    1  UNL1        0.0182
     27 C         142.1266  143.9972  163.2284 C.ar    1  UNL1        0.0140
     28 C         140.9314  144.3932  164.0436 C.ar    1  UNL1        0.0023
     29 C         139.5875  143.7994  163.7418 C.ar    1  UNL1        0.0725
     30 C         139.4387  142.8096  162.6246 C.ar    1  UNL1        0.0237
     31 C         138.3923  144.1955  164.5571 C.3     1  UNL1        0.4186
     32 F         137.1971  144.5915  165.3723 F       1  UNL1       -0.1659
     33 F         137.5779  143.1341  163.8787 F       1  UNL1       -0.1659
     34 F         139.2067  145.2568  165.2354 F       1  UNL1       -0.1659
     35 C         143.4706  144.5910  163.5303 C.3     1  UNL1        0.2288
     36 O         144.0991  145.5533  162.5664 O.3     1  UNL1       -0.3730
     37 H         143.5096  145.6814  161.8068 H       1  UNL1        0.2111
     38 C         144.1861  144.2226  164.7961 C.3     1  UNL1        0.4258
     39 F         144.9016  143.8541  166.0619 F       1  UNL1       -0.1672
     40 F         144.3128  145.6753  165.1474 F       1  UNL1       -0.1672
     41 F         144.0594  142.7698  164.4448 F       1  UNL1       -0.1672
@<TRIPOS>BOND
     1     1     2    2
     2     9     2    1
     3     9    10    1
     4    10    11    1
     5    11    12    1
     6    12    13   ar
     7    13    14   ar
     8    14    15   ar
     9    15    18    1
    10    18    19    1
    11    18    20    1
    12    18    21    1
    13    15    16   ar
    14    16    17   ar
    15     2     3   am
    16     3     4    1
    17     4     5    1
    18     5     6    1
    19     6    22    1
    20    22    23    2
    21    22    24    2
    22    22    25    1
    23    25    26   ar
    24    26    27   ar
    25    27    35    1
    26    35    36    1
    27    35    38    1
    28    38    39    1
    29    38    40    1
    30    38    41    1
    31    27    28   ar
    32    28    29   ar
    33    29    31    1
    34    31    32    1
    35    31    33    1
    36    31    34    1
    37    29    30   ar
    38     6     7    1
    39     7     8    1
    40    11     9    1
    41    17    12   ar
    42     8     3    1
    43    30    25   ar
    44    36    37    1
@<TRIPOS>MOLECULE
*****
 41 44 0 0 0
SMALL
GASTEIGER

@<TRIPOS>ATOM
      1 O         137.9086  143.8205  155.8737 O.2     1  UNL1       -0.2749
      2 C         137.4045  142.5119  156.4064 C.2     1  UNL1        0.2256
      3 N         137.8406  142.0352  157.7601 N.am    1  UNL1       -0.2766
      4 C         137.3365  140.7266  158.2927 C.3     1  UNL1        0.1126
      5 C         137.7726  140.2500  159.6464 C.3     1  UNL1        0.1173
      6 N         138.7126  141.0818  160.4676 N.3     1  UNL1       -0.1520
      7 C         139.2167  142.3903  159.9350 C.3     1  UNL1        0.1173
      8 C         138.7806  142.8671  158.5812 C.3     1  UNL1        0.1126
      9 C         136.4645  141.6800  155.5852 C.3     1  UNL1        0.0811
     10 C         136.1553  140.9360  154.3200 C.3     1  UNL1        0.0142
     11 C         135.1454  140.9833  155.4282 C.3     1  UNL1        0.0314
     12 C         133.8008  140.6084  155.9773 C.ar    1  UNL1       -0.0220
     13 C         133.6975  139.6074  157.0897 C.ar    1  UNL1       -0.0043
     14 C         132.3530  139.2325  157.6387 C.ar    1  UNL1        0.0035
     15 C         131.1117  139.8586  157.0755 C.ar    1  UNL1        0.0714
     16 C         131.2150  140.8596  155.9631 C.ar    1  UNL1        0.0035
     17 C         132.5595  141.2345  155.4140 C.ar    1  UNL1       -0.0043
     18 C         129.7670  139.4837  157.6246 C.3     1  UNL1        0.4186
     19 F         128.4225  139.1087  158.1738 F       1  UNL1       -0.1659
     20 F         129.1074  140.3920  156.6297 F       1  UNL1       -0.1659
     21 F         130.4267  138.5754  158.6195 F       1  UNL1       -0.1659
     22 S         139.1487  140.6051  161.8213 S.O2    1  UNL1        0.0634
     23 O         140.3204  139.9063  161.1979 O.2     1  UNL1       -0.1528
     24 O         137.9769  141.3039  162.4448 O.2     1  UNL1       -0.1528
     25 C         139.5847  140.1285  163.1751 C.ar    1  UNL1        0.1219
     26 C         140.9589  140.4562  163.6790 C.ar    1  UNL1        0.0182
     27 C         141.3949  139.9796  165.0327 C.ar    1  UNL1        0.0140
     28 C         140.4566  139.1751  165.8826 C.ar    1  UNL1        0.0023
     29 C         139.0823  138.8473  165.3788 C.ar    1  UNL1        0.0725
     30 C         138.6463  139.3240  164.0251 C.ar    1  UNL1        0.0237
     31 C         138.1440  138.0429  166.2288 C.3     1  UNL1        0.4186
     32 F         137.2056  137.2384  167.0787 F       1  UNL1       -0.1659
     33 F         137.6168  139.3061  166.8423 F       1  UNL1       -0.1659
     34 F         138.6712  136.7797  165.6152 F       1  UNL1       -0.1659
     35 C         142.7692  140.3073  165.5366 C.3     1  UNL1        0.2288
     36 O         142.9369  141.1892  166.7383 O.3     1  UNL1       -0.3730
     37 H         142.0646  141.4590  167.0656 H       1  UNL1        0.2111
     38 C         143.9758  139.7532  164.8387 C.3     1  UNL1        0.4258
     39 F         145.1824  139.1991  164.1408 F       1  UNL1       -0.1672
     40 F         143.6304  138.3795  165.3322 F       1  UNL1       -0.1672
     41 F         144.3213  141.1269  164.3452 F       1  UNL1       -0.1672
@<TRIPOS>BOND
     1     1     2    2
     2     9     2    1
     3     9    10    1
     4    10    11    1
     5    11    12    1
     6    12    13   ar
     7    13    14   ar
     8    14    15   ar
     9    15    18    1
    10    18    19    1
    11    18    20    1
    12    18    21    1
    13    15    16   ar
    14    16    17   ar
    15     2     3   am
    16     3     4    1
    17     4     5    1
    18     5     6    1
    19     6    22    1
    20    22    23    2
    21    22    24    2
    22    22    25    1
    23    25    26   ar
    24    26    27   ar
    25    27    35    1
    26    35    36    1
    27    35    38    1
    28    38    39    1
    29    38    40    1
    30    38    41    1
    31    27    28   ar
    32    28    29   ar
    33    29    31    1
    34    31    32    1
    35    31    33    1
    36    31    34    1
    37    29    30   ar
    38     6     7    1
    39     7     8    1
    40    11     9    1
    41    17    12   ar
    42     8     3    1
    43    30    25   ar
    44    36    37    1
