@<TRIPOS>MOLECULE
*****
 34 37 0 0 0
SMALL
GASTEIGER

@<TRIPOS>ATOM
      1 C         138.8223  139.6854  165.4243 C.ar    1  UNL1        0.0205
      2 C         140.1443  140.1829  165.9290 C.ar    1  UNL1        0.0219
      3 C         140.0931  140.1955  167.4281 C.ar    1  UNL1        0.0961
      4 C         141.1042  140.5896  168.4635 C.ar    1  UNL1        0.0685
      5 C         140.7617  140.4941  169.9208 C.ar    1  UNL1        0.0885
      6 C         139.4081  140.0044  170.3425 C.ar    1  UNL1        0.1263
      7 N         138.3970  139.6102  169.3071 N.ar    1  UNL1       -0.1633
      8 N         138.7395  139.7058  167.8498 N.ar    1  UNL1       -0.2270
      9 C         137.9540  139.3905  166.6114 C.ar    1  UNL1        0.1004
     10 C         137.6658  141.9925  163.8947 C.3     1  UNL1        0.0327
     11 C         137.8580  140.6665  163.2203 C.ar    1  UNL1       -0.0026
     12 C         137.4719  140.4940  161.7811 C.ar    1  UNL1        0.0946
     13 N         137.6641  139.1681  161.1067 N.ar    1  UNL1       -0.2426
     14 C         138.2423  138.0145  161.8715 C.ar    1  UNL1        0.0989
     15 C         138.6284  138.1870  163.3107 C.ar    1  UNL1        0.0204
     16 C         138.4362  139.5130  163.9851 C.ar    1  UNL1        0.0006
     17 C         141.7729  140.8882  170.9564 C.2     1  UNL1        0.2456
     18 N         142.9604  140.0098  171.2176 N.am    1  UNL1       -0.3252
     19 O         141.5965  142.1608  171.7306 O.2     1  UNL1       -0.2703
     20 H         143.0761  139.1746  170.7094 H       1  UNL1        0.1453
     21 H         143.6240  140.2685  171.8972 H       1  UNL1        0.1453
     22 N         142.4579  141.0794  168.0418 N.pl3   1  UNL1       -0.3327
     23 H         142.9238  141.7611  168.5780 H       1  UNL1        0.1468
     24 C         143.1017  140.5304  166.8032 C.3     1  UNL1        0.0702
     25 C         143.3605  139.0819  166.5120 C.3     1  UNL1        0.0208
     26 C         144.0184  138.9898  165.1672 C.3     1  UNL1        0.0160
     27 C         144.1663  140.3815  164.6272 C.3     1  UNL1        0.0404
     28 C         144.7911  139.6900  163.4518 C.3     1  UNL1        0.0156
     29 N         144.4448  141.6285  163.8416 N.3     1  UNL1       -0.3231
     30 C         143.5997  141.3336  165.6384 C.3     1  UNL1        0.0282
     31 C         143.9967  142.3817  164.6413 C.3     1  UNL1        0.0029
     32 C         143.1161  142.5048  166.4411 C.3     1  UNL1        0.0029
     33 H         144.8919  141.3814  162.9588 H       1  UNL1        0.1188
     34 H         145.0636  142.2369  164.3776 H       1  UNL1        0.1188
@<TRIPOS>BOND
     1    10    11    1
     2    11    12   ar
     3    12    13   ar
     4    13    14   ar
     5    14    15   ar
     6    15    16   ar
     7    16     1    1
     8     1     2   ar
     9     2     3   ar
    10     3     4   ar
    11     4    22    1
    12    24    22    1
    13    24    25    1
    14    25    26    1
    15    26    27    1
    16    27    28    1
    17    27    29    1
    18    27    30    1
    19    30    31    1
    20    30    32    1
    21     4     5   ar
    22     5    17    1
    23    17    18   am
    24    17    19    2
    25     5     6   ar
    26     6     7   ar
    27     7     8   ar
    28     8     9   ar
    29    16    11   ar
    30     9     1   ar
    31     8     3   ar
    32    30    24    1
    33    22    23    1
    34    29    33    1
    35    29    34    1
    36    18    20    1
    37    18    21    1
@<TRIPOS>MOLECULE
*****
 34 37 0 0 0
SMALL
GASTEIGER

@<TRIPOS>ATOM
      1 C         141.4039  140.4401  167.3673 C.ar    1  UNL1        0.0205
      2 C         140.4578  140.7951  166.2588 C.ar    1  UNL1        0.0219
      3 C         140.5566  139.7309  165.2064 C.ar    1  UNL1        0.0961
      4 C         139.8596  139.5532  163.8901 C.ar    1  UNL1        0.0685
      5 C         140.1698  138.3627  163.0319 C.ar    1  UNL1        0.0885
      6 C         141.1770  137.3500  163.4899 C.ar    1  UNL1        0.1263
      7 N         141.8740  137.5277  164.8062 N.ar    1  UNL1       -0.1633
      8 N         141.5639  138.7181  165.6644 N.ar    1  UNL1       -0.2270
      9 C         142.0875  139.1564  167.0000 C.ar    1  UNL1        0.1004
     10 C         139.3323  140.4257  169.5372 C.3     1  UNL1        0.0327
     11 C         140.5915  141.2228  169.7077 C.ar    1  UNL1       -0.0026
     12 C         140.8149  142.0127  170.9631 C.ar    1  UNL1        0.0946
     13 N         142.0741  142.8098  171.1337 N.ar    1  UNL1       -0.2426
     14 C         143.1099  142.8170  170.0488 C.ar    1  UNL1        0.0989
     15 C         142.8865  142.0271  168.7933 C.ar    1  UNL1        0.0204
     16 C         141.6273  141.2300  168.6228 C.ar    1  UNL1        0.0006
     17 C         139.4728  138.1850  161.7156 C.2     1  UNL1        0.2456
     18 N         138.0757  137.6405  161.6742 N.am    1  UNL1       -0.3252
     19 O         140.1728  138.5518  160.4406 O.2     1  UNL1       -0.2703
     20 H         137.6162  137.3998  162.5110 H       1  UNL1        0.1453
     21 H         137.6182  137.5239  160.8103 H       1  UNL1        0.1453
     22 N         138.8524  140.5660  163.4320 N.pl3   1  UNL1       -0.3327
     23 H         137.8914  140.4013  163.5689 H       1  UNL1        0.1468
     24 C         139.3093  141.8297  162.7654 C.3     1  UNL1        0.0702
     25 C         140.5317  141.9829  161.9098 C.3     1  UNL1        0.0208
     26 C         140.6020  143.4098  161.4529 C.3     1  UNL1        0.0160
     27 C         139.4229  144.1386  162.0263 C.3     1  UNL1        0.0404
     28 C         140.0006  145.3192  161.3034 C.3     1  UNL1        0.0156
     29 N         138.3646  145.1142  162.4484 N.3     1  UNL1       -0.3231
     30 C         138.6240  143.1620  162.8374 C.3     1  UNL1        0.0282
     31 C         137.7327  144.3418  163.0901 C.3     1  UNL1        0.0029
     32 C         137.6388  142.4321  163.7014 C.3     1  UNL1        0.0029
     33 H         138.5685  146.0306  162.0497 H       1  UNL1        0.1188
     34 H         138.3509  145.1816  163.4661 H       1  UNL1        0.1188
@<TRIPOS>BOND
     1    10    11    1
     2    11    12   ar
     3    12    13   ar
     4    13    14   ar
     5    14    15   ar
     6    15    16   ar
     7    16     1    1
     8     1     2   ar
     9     2     3   ar
    10     3     4   ar
    11     4    22    1
    12    24    22    1
    13    24    25    1
    14    25    26    1
    15    26    27    1
    16    27    28    1
    17    27    29    1
    18    27    30    1
    19    30    31    1
    20    30    32    1
    21     4     5   ar
    22     5    17    1
    23    17    18   am
    24    17    19    2
    25     5     6   ar
    26     6     7   ar
    27     7     8   ar
    28     8     9   ar
    29    16    11   ar
    30     9     1   ar
    31     8     3   ar
    32    30    24    1
    33    22    23    1
    34    29    33    1
    35    29    34    1
    36    18    20    1
    37    18    21    1
@<TRIPOS>MOLECULE
*****
 34 37 0 0 0
SMALL
GASTEIGER

@<TRIPOS>ATOM
      1 C         141.6270  142.3256  166.9390 C.ar    1  UNL1        0.0205
      2 C         141.0763  142.5610  165.5638 C.ar    1  UNL1        0.0219
      3 C         142.2323  142.6727  164.6145 C.ar    1  UNL1        0.0961
      4 C         142.2963  142.9044  163.1339 C.ar    1  UNL1        0.0685
      5 C         143.6256  142.9697  162.4419 C.ar    1  UNL1        0.0885
      6 C         144.8906  142.8032  163.2303 C.ar    1  UNL1        0.1263
      7 N         144.8266  142.5715  164.7109 N.ar    1  UNL1       -0.1633
      8 N         143.4974  142.5062  165.4030 N.ar    1  UNL1       -0.2270
      9 C         143.1233  142.2917  166.8397 C.ar    1  UNL1        0.1004
     10 C         140.1595  139.7575  167.4408 C.3     1  UNL1        0.0327
     11 C         140.0889  140.8701  168.4443 C.ar    1  UNL1       -0.0026
     12 C         139.2845  140.6987  169.6988 C.ar    1  UNL1        0.0946
     13 N         139.2138  141.8112  170.7024 N.ar    1  UNL1       -0.2426
     14 C         139.9475  143.0953  170.4515 C.ar    1  UNL1        0.0989
     15 C         140.7519  143.2667  169.1970 C.ar    1  UNL1        0.0204
     16 C         140.8226  142.1541  168.1935 C.ar    1  UNL1        0.0006
     17 C         143.6897  143.2014  160.9612 C.2     1  UNL1        0.2456
     18 N         144.6989  142.4662  160.1300 N.am    1  UNL1       -0.3252
     19 O         142.7445  144.1684  160.3118 O.2     1  UNL1       -0.2703
     20 H         145.3192  141.8316  160.5562 H       1  UNL1        0.1453
     21 H         144.7410  142.6183  159.1582 H       1  UNL1        0.1453
     22 N         141.0312  143.0709  162.3453 N.pl3   1  UNL1       -0.3327
     23 H         140.7463  143.9675  162.0553 H       1  UNL1        0.1468
     24 C         140.2002  141.8712  161.9987 C.3     1  UNL1        0.0702
     25 C         140.6817  140.6402  161.2896 C.3     1  UNL1        0.0208
     26 C         139.5209  139.7001  161.1529 C.3     1  UNL1        0.0160
     27 C         138.3220  140.3500  161.7775 C.3     1  UNL1        0.0404
     28 C         137.6209  139.0890  161.3675 C.3     1  UNL1        0.0156
     29 N         136.9765  140.7363  162.3164 N.3     1  UNL1       -0.3231
     30 C         138.7418  141.6918  162.3002 C.3     1  UNL1        0.0282
     31 C         137.3085  141.7977  162.7299 C.3     1  UNL1        0.0029
     32 C         138.8620  143.0558  162.9127 C.3     1  UNL1        0.0029
     33 H         136.3103  139.9849  162.1379 H       1  UNL1        0.1188
     34 H         136.6582  141.5894  161.8566 H       1  UNL1        0.1188
@<TRIPOS>BOND
     1    10    11    1
     2    11    12   ar
     3    12    13   ar
     4    13    14   ar
     5    14    15   ar
     6    15    16   ar
     7    16     1    1
     8     1     2   ar
     9     2     3   ar
    10     3     4   ar
    11     4    22    1
    12    24    22    1
    13    24    25    1
    14    25    26    1
    15    26    27    1
    16    27    28    1
    17    27    29    1
    18    27    30    1
    19    30    31    1
    20    30    32    1
    21     4     5   ar
    22     5    17    1
    23    17    18   am
    24    17    19    2
    25     5     6   ar
    26     6     7   ar
    27     7     8   ar
    28     8     9   ar
    29    16    11   ar
    30     9     1   ar
    31     8     3   ar
    32    30    24    1
    33    22    23    1
    34    29    33    1
    35    29    34    1
    36    18    20    1
    37    18    21    1
@<TRIPOS>MOLECULE
*****
 34 37 0 0 0
SMALL
GASTEIGER

@<TRIPOS>ATOM
      1 C         140.3262  140.2266  167.7101 C.ar    1  UNL1        0.0205
      2 C         141.1756  140.3456  166.4795 C.ar    1  UNL1        0.0219
      3 C         140.5567  139.5008  165.4057 C.ar    1  UNL1        0.0961
      4 C         140.9558  139.2325  163.9849 C.ar    1  UNL1        0.0685
      5 C         140.1229  138.3230  163.1309 C.ar    1  UNL1        0.0885
      6 C         138.8911  137.6819  163.6977 C.ar    1  UNL1        0.1263
      7 N         138.4920  137.9502  165.1186 N.ar    1  UNL1       -0.1633
      8 N         139.3248  138.8596  165.9725 N.ar    1  UNL1       -0.2270
      9 C         139.1823  139.3082  167.3968 C.ar    1  UNL1        0.1004
     10 C         142.3052  139.0694  169.6452 C.3     1  UNL1        0.0327
     11 C         141.5661  140.3280  169.9910 C.ar    1  UNL1       -0.0026
     12 C         141.8164  141.0080  171.3043 C.ar    1  UNL1        0.0946
     13 N         141.0774  142.2666  171.6502 N.ar    1  UNL1       -0.2426
     14 C         140.0879  142.8453  170.6827 C.ar    1  UNL1        0.0989
     15 C         139.8375  142.1652  169.3693 C.ar    1  UNL1        0.0204
     16 C         140.5766  140.9066  169.0235 C.ar    1  UNL1        0.0006
     17 C         140.5220  138.0547  161.7100 C.2     1  UNL1        0.2456
     18 N         139.5638  138.3476  160.5938 N.am    1  UNL1       -0.3252
     19 O         141.8793  137.4934  161.4054 O.2     1  UNL1       -0.2703
     20 H         138.6730  138.7160  160.7937 H       1  UNL1        0.1453
     21 H         139.8257  138.1715  159.6612 H       1  UNL1        0.1453
     22 N         142.1877  139.8736  163.4179 N.pl3   1  UNL1       -0.3327
     23 H         142.9045  139.3142  163.0403 H       1  UNL1        0.1468
     24 C         142.3275  141.3671  163.4264 C.3     1  UNL1        0.0702
     25 C         141.3303  142.3490  162.8868 C.3     1  UNL1        0.0208
     26 C         141.8755  143.7296  163.1028 C.3     1  UNL1        0.0160
     27 C         143.2098  143.6009  163.7760 C.3     1  UNL1        0.0404
     28 C         143.2094  145.0996  163.7140 C.3     1  UNL1        0.0156
     29 N         144.5439  143.7855  164.4362 N.3     1  UNL1       -0.3231
     30 C         143.4891  142.1408  163.9759 C.3     1  UNL1        0.0282
     31 C         144.7650  142.6306  164.5944 C.3     1  UNL1        0.0029
     32 C         144.0352  140.7831  164.3052 C.3     1  UNL1        0.0029
     33 H         144.7562  144.7810  164.5014 H       1  UNL1        0.1188
     34 H         145.2640  143.3198  163.8838 H       1  UNL1        0.1188
@<TRIPOS>BOND
     1    10    11    1
     2    11    12   ar
     3    12    13   ar
     4    13    14   ar
     5    14    15   ar
     6    15    16   ar
     7    16     1    1
     8     1     2   ar
     9     2     3   ar
    10     3     4   ar
    11     4    22    1
    12    24    22    1
    13    24    25    1
    14    25    26    1
    15    26    27    1
    16    27    28    1
    17    27    29    1
    18    27    30    1
    19    30    31    1
    20    30    32    1
    21     4     5   ar
    22     5    17    1
    23    17    18   am
    24    17    19    2
    25     5     6   ar
    26     6     7   ar
    27     7     8   ar
    28     8     9   ar
    29    16    11   ar
    30     9     1   ar
    31     8     3   ar
    32    30    24    1
    33    22    23    1
    34    29    33    1
    35    29    34    1
    36    18    20    1
    37    18    21    1
@<TRIPOS>MOLECULE
*****
 34 37 0 0 0
SMALL
GASTEIGER

@<TRIPOS>ATOM
      1 C         141.1650  140.3812  167.3291 C.ar    1  UNL1        0.0205
      2 C         140.2415  140.7692  166.2126 C.ar    1  UNL1        0.0219
      3 C         140.3412  139.7218  165.1435 C.ar    1  UNL1        0.0961
      4 C         139.6622  139.5771  163.8138 C.ar    1  UNL1        0.0685
      5 C         139.9684  138.3970  162.9398 C.ar    1  UNL1        0.0885
      6 C         140.9536  137.3619  163.3955 C.ar    1  UNL1        0.1263
      7 N         141.6326  137.5066  164.7251 N.ar    1  UNL1       -0.1633
      8 N         141.3264  138.6866  165.5991 N.ar    1  UNL1       -0.2270
      9 C         141.8356  139.0940  166.9499 C.ar    1  UNL1        0.1004
     10 C         143.3509  142.4291  167.4967 C.3     1  UNL1        0.0327
     11 C         142.4732  142.1699  168.6852 C.ar    1  UNL1       -0.0026
     12 C         142.6884  142.9347  169.9575 C.ar    1  UNL1        0.0946
     13 N         141.8108  142.6756  171.1460 N.ar    1  UNL1       -0.2426
     14 C         140.7178  141.6516  171.0622 C.ar    1  UNL1        0.0989
     15 C         140.5026  140.8868  169.7899 C.ar    1  UNL1        0.0204
     16 C         141.3803  141.1460  168.6014 C.ar    1  UNL1        0.0006
     17 C         139.2894  138.2523  161.6101 C.2     1  UNL1        0.2456
     18 N         140.0987  138.2813  160.3476 N.am    1  UNL1       -0.3252
     19 O         137.8010  138.0786  161.5430 O.2     1  UNL1       -0.2703
     20 H         141.0756  138.3953  160.3916 H       1  UNL1        0.1453
     21 H         139.6531  138.1863  159.4749 H       1  UNL1        0.1453
     22 N         138.6770  140.6124  163.3581 N.pl3   1  UNL1       -0.3327
     23 H         137.7147  140.4810  163.5196 H       1  UNL1        0.1468
     24 C         139.1579  141.8477  162.6563 C.3     1  UNL1        0.0702
     25 C         140.3174  141.9282  161.7081 C.3     1  UNL1        0.0208
     26 C         140.4399  143.3497  161.2452 C.3     1  UNL1        0.0160
     27 C         139.3561  144.1478  161.9073 C.3     1  UNL1        0.0404
     28 C         139.9477  145.2930  161.1402 C.3     1  UNL1        0.0156
     29 N         138.3960  145.1853  162.4091 N.3     1  UNL1       -0.3231
     30 C         138.5638  143.2196  162.7794 C.3     1  UNL1        0.0282
     31 C         137.7693  144.4511  163.0989 C.3     1  UNL1        0.0029
     32 C         137.6054  142.5487  163.7183 C.3     1  UNL1        0.0029
     33 H         138.6244  146.0888  161.9945 H       1  UNL1        0.1188
     34 H         138.4654  145.2500  163.4247 H       1  UNL1        0.1188
@<TRIPOS>BOND
     1    10    11    1
     2    11    12   ar
     3    12    13   ar
     4    13    14   ar
     5    14    15   ar
     6    15    16   ar
     7    16     1    1
     8     1     2   ar
     9     2     3   ar
    10     3     4   ar
    11     4    22    1
    12    24    22    1
    13    24    25    1
    14    25    26    1
    15    26    27    1
    16    27    28    1
    17    27    29    1
    18    27    30    1
    19    30    31    1
    20    30    32    1
    21     4     5   ar
    22     5    17    1
    23    17    18   am
    24    17    19    2
    25     5     6   ar
    26     6     7   ar
    27     7     8   ar
    28     8     9   ar
    29    16    11   ar
    30     9     1   ar
    31     8     3   ar
    32    30    24    1
    33    22    23    1
    34    29    33    1
    35    29    34    1
    36    18    20    1
    37    18    21    1
@<TRIPOS>MOLECULE
*****
 34 37 0 0 0
SMALL
GASTEIGER

@<TRIPOS>ATOM
      1 C         142.3478  140.5905  167.5965 C.ar    1  UNL1        0.0205
      2 C         142.2769  141.6229  166.5107 C.ar    1  UNL1        0.0219
      3 C         142.9961  141.0831  165.3102 C.ar    1  UNL1        0.0961
      4 C         143.2483  141.6590  163.9483 C.ar    1  UNL1        0.0685
      5 C         144.0159  140.8687  162.9302 C.ar    1  UNL1        0.0885
      6 C         144.5312  139.5027  163.2740 C.ar    1  UNL1        0.1263
      7 N         144.2790  138.9268  164.6359 N.ar    1  UNL1       -0.1633
      8 N         143.5115  139.7170  165.6540 N.ar    1  UNL1       -0.2270
      9 C         143.1108  139.4125  167.0670 C.ar    1  UNL1        0.1004
     10 C         143.7120  142.2799  169.6665 C.3     1  UNL1        0.0327
     11 C         142.4412  141.5589  170.0055 C.ar    1  UNL1       -0.0026
     12 C         141.8524  141.6826  171.3796 C.ar    1  UNL1        0.0946
     13 N         140.5815  140.9615  171.7187 N.ar    1  UNL1       -0.2426
     14 C         139.8994  140.1168  170.6838 C.ar    1  UNL1        0.0989
     15 C         140.4882  139.9932  169.3097 C.ar    1  UNL1        0.0204
     16 C         141.7591  140.7142  168.9706 C.ar    1  UNL1        0.0006
     17 C         144.2680  141.4446  161.5682 C.2     1  UNL1        0.2456
     18 N         145.2402  142.5745  161.4000 N.am    1  UNL1       -0.3252
     19 O         143.5480  140.8907  160.3746 O.2     1  UNL1       -0.2703
     20 H         145.7128  142.9380  162.1834 H       1  UNL1        0.1453
     21 H         145.4057  142.9524  160.5061 H       1  UNL1        0.1453
     22 N         142.7329  143.0251  163.6044 N.pl3   1  UNL1       -0.3327
     23 H         143.3628  143.7703  163.4736 H       1  UNL1        0.1468
     24 C         141.2578  143.2556  163.4597 C.3     1  UNL1        0.0702
     25 C         140.1720  142.3138  163.8884 C.3     1  UNL1        0.0208
     26 C         138.8527  142.9445  163.5546 C.3     1  UNL1        0.0160
     27 C         139.1231  144.2763  162.9196 C.3     1  UNL1        0.0404
     28 C         137.6278  144.3664  162.8421 C.3     1  UNL1        0.0156
     29 N         139.0809  145.6269  162.2683 N.3     1  UNL1       -0.3231
     30 C         140.6095  144.4686  162.8609 C.3     1  UNL1        0.0282
     31 C         140.2567  145.7790  162.2219 C.3     1  UNL1        0.0029
     32 C         142.0222  144.9348  162.6687 C.3     1  UNL1        0.0029
     33 H         138.1103  145.9001  162.1146 H       1  UNL1        0.1188
     34 H         139.5690  145.5882  161.3735 H       1  UNL1        0.1188
@<TRIPOS>BOND
     1    10    11    1
     2    11    12   ar
     3    12    13   ar
     4    13    14   ar
     5    14    15   ar
     6    15    16   ar
     7    16     1    1
     8     1     2   ar
     9     2     3   ar
    10     3     4   ar
    11     4    22    1
    12    24    22    1
    13    24    25    1
    14    25    26    1
    15    26    27    1
    16    27    28    1
    17    27    29    1
    18    27    30    1
    19    30    31    1
    20    30    32    1
    21     4     5   ar
    22     5    17    1
    23    17    18   am
    24    17    19    2
    25     5     6   ar
    26     6     7   ar
    27     7     8   ar
    28     8     9   ar
    29    16    11   ar
    30     9     1   ar
    31     8     3   ar
    32    30    24    1
    33    22    23    1
    34    29    33    1
    35    29    34    1
    36    18    20    1
    37    18    21    1
@<TRIPOS>MOLECULE
*****
 34 37 0 0 0
SMALL
GASTEIGER

@<TRIPOS>ATOM
      1 C         142.8301  139.1366  164.6449 C.ar    1  UNL1        0.0205
      2 C         141.8426  140.1224  165.1953 C.ar    1  UNL1        0.0219
      3 C         141.8974  140.0466  166.6923 C.ar    1  UNL1        0.0961
      4 C         141.1492  140.7845  167.7627 C.ar    1  UNL1        0.0685
      5 C         141.4224  140.4897  169.2079 C.ar    1  UNL1        0.0885
      6 C         142.4438  139.4572  169.5827 C.ar    1  UNL1        0.1263
      7 N         143.1920  138.7193  168.5123 N.ar    1  UNL1       -0.1633
      8 N         142.9188  139.0140  167.0672 N.ar    1  UNL1       -0.2270
      9 C         143.4953  138.4515  165.8017 C.ar    1  UNL1        0.1004
     10 C         141.1476  137.1730  163.1237 C.3     1  UNL1        0.0327
     11 C         142.2632  137.8989  162.4320 C.ar    1  UNL1       -0.0026
     12 C         142.5375  137.6431  160.9796 C.ar    1  UNL1        0.0946
     13 N         143.6531  138.3689  160.2878 N.ar    1  UNL1       -0.2426
     14 C         144.4943  139.3507  161.0483 C.ar    1  UNL1        0.0989
     15 C         144.2200  139.6065  162.5007 C.ar    1  UNL1        0.0204
     16 C         143.1044  138.8807  163.1925 C.ar    1  UNL1        0.0006
     17 C         140.6742  141.2277  170.2783 C.2     1  UNL1        0.2456
     18 N         141.4198  142.0740  171.2672 N.am    1  UNL1       -0.3252
     19 O         139.1803  141.1193  170.3598 O.2     1  UNL1       -0.2703
     20 H         142.4003  142.1451  171.2137 H       1  UNL1        0.1453
     21 H         140.9288  142.5583  171.9697 H       1  UNL1        0.1453
     22 N         140.1278  141.8172  167.3879 N.pl3   1  UNL1       -0.3327
     23 H         139.9933  142.6069  167.9602 H       1  UNL1        0.1468
     24 C         139.3114  141.6465  166.1412 C.3     1  UNL1        0.0702
     25 C         138.5701  140.4073  165.7355 C.3     1  UNL1        0.0208
     26 C         137.8935  140.6800  164.4249 C.3     1  UNL1        0.0160
     27 C         138.2165  142.0879  164.0206 C.3     1  UNL1        0.0404
     28 C         137.3707  141.7711  162.8230 C.3     1  UNL1        0.0156
     29 N         138.3627  143.4296  163.3660 N.3     1  UNL1       -0.3231
     30 C         139.0928  142.6853  165.0814 C.3     1  UNL1        0.0282
     31 C         139.0558  143.9021  164.2050 C.3     1  UNL1        0.0029
     32 C         139.9614  143.5370  165.9589 C.3     1  UNL1        0.0029
     33 H         137.8408  143.4390  162.4897 H       1  UNL1        0.1188
     34 H         139.3486  143.6098  163.1765 H       1  UNL1        0.1188
@<TRIPOS>BOND
     1    10    11    1
     2    11    12   ar
     3    12    13   ar
     4    13    14   ar
     5    14    15   ar
     6    15    16   ar
     7    16     1    1
     8     1     2   ar
     9     2     3   ar
    10     3     4   ar
    11     4    22    1
    12    24    22    1
    13    24    25    1
    14    25    26    1
    15    26    27    1
    16    27    28    1
    17    27    29    1
    18    27    30    1
    19    30    31    1
    20    30    32    1
    21     4     5   ar
    22     5    17    1
    23    17    18   am
    24    17    19    2
    25     5     6   ar
    26     6     7   ar
    27     7     8   ar
    28     8     9   ar
    29    16    11   ar
    30     9     1   ar
    31     8     3   ar
    32    30    24    1
    33    22    23    1
    34    29    33    1
    35    29    34    1
    36    18    20    1
    37    18    21    1
@<TRIPOS>MOLECULE
*****
 34 37 0 0 0
SMALL
GASTEIGER

@<TRIPOS>ATOM
      1 C         139.4382  139.6148  164.1579 C.ar    1  UNL1        0.0205
      2 C         140.8349  139.9291  164.6055 C.ar    1  UNL1        0.0219
      3 C         140.8416  139.9762  166.1047 C.ar    1  UNL1        0.0961
      4 C         141.9359  140.2419  167.0956 C.ar    1  UNL1        0.0685
      5 C         141.6375  140.2225  168.5656 C.ar    1  UNL1        0.0885
      6 C         140.2450  139.9374  169.0445 C.ar    1  UNL1        0.1263
      7 N         139.1507  139.6717  168.0536 N.ar    1  UNL1       -0.1633
      8 N         139.4490  139.6911  166.5837 N.ar    1  UNL1       -0.2270
      9 C         138.5816  139.4677  165.3805 C.ar    1  UNL1        0.1004
     10 C         140.6883  137.5500  162.3764 C.3     1  UNL1        0.0327
     11 C         139.6037  138.4402  161.8464 C.ar    1  UNL1       -0.0026
     12 C         139.1440  138.2981  160.4257 C.ar    1  UNL1        0.0946
     13 N         138.0594  139.1883  159.8956 N.ar    1  UNL1       -0.2426
     14 C         137.4343  140.2207  160.7863 C.ar    1  UNL1        0.0989
     15 C         137.8939  140.3629  162.2071 C.ar    1  UNL1        0.0204
     16 C         138.9786  139.4726  162.7371 C.ar    1  UNL1        0.0006
     17 C         142.7318  140.4882  169.5566 C.2     1  UNL1        0.2456
     18 N         143.0406  139.4781  170.6217 N.am    1  UNL1       -0.3252
     19 O         143.5173  141.7639  169.4824 O.2     1  UNL1       -0.2703
     20 H         142.5251  138.6408  170.6704 H       1  UNL1        0.1453
     21 H         143.7588  139.6525  171.2721 H       1  UNL1        0.1453
     22 N         143.3285  140.5270  166.6167 N.pl3   1  UNL1       -0.3327
     23 H         144.0880  140.0159  166.9790 H       1  UNL1        0.1468
     24 C         143.5640  141.5909  165.5858 C.3     1  UNL1        0.0702
     25 C         143.0668  143.0047  165.6484 C.3     1  UNL1        0.0208
     26 C         143.5335  143.7153  164.4126 C.3     1  UNL1        0.0160
     27 C         144.3190  142.7406  163.5862 C.3     1  UNL1        0.0404
     28 C         144.4711  143.9005  162.6473 C.3     1  UNL1        0.0156
     29 N         145.1363  142.0085  162.5635 N.3     1  UNL1       -0.3231
     30 C         144.3379  141.4277  164.3113 C.3     1  UNL1        0.0282
     31 C         145.1513  140.9699  163.1370 C.3     1  UNL1        0.0029
     32 C         144.5267  140.0190  164.7909 C.3     1  UNL1        0.0029
     33 H         145.3645  142.6396  161.7954 H       1  UNL1        0.1188
     34 H         144.6028  141.2162  162.2056 H       1  UNL1        0.1188
@<TRIPOS>BOND
     1    10    11    1
     2    11    12   ar
     3    12    13   ar
     4    13    14   ar
     5    14    15   ar
     6    15    16   ar
     7    16     1    1
     8     1     2   ar
     9     2     3   ar
    10     3     4   ar
    11     4    22    1
    12    24    22    1
    13    24    25    1
    14    25    26    1
    15    26    27    1
    16    27    28    1
    17    27    29    1
    18    27    30    1
    19    30    31    1
    20    30    32    1
    21     4     5   ar
    22     5    17    1
    23    17    18   am
    24    17    19    2
    25     5     6   ar
    26     6     7   ar
    27     7     8   ar
    28     8     9   ar
    29    16    11   ar
    30     9     1   ar
    31     8     3   ar
    32    30    24    1
    33    22    23    1
    34    29    33    1
    35    29    34    1
    36    18    20    1
    37    18    21    1
@<TRIPOS>MOLECULE
*****
 34 37 0 0 0
SMALL
GASTEIGER

@<TRIPOS>ATOM
      1 C         140.5676  140.6834  167.2334 C.ar    1  UNL1        0.0205
      2 C         141.2243  140.8180  165.8915 C.ar    1  UNL1        0.0219
      3 C         140.5909  139.8240  164.9638 C.ar    1  UNL1        0.0961
      4 C         140.8332  139.5041  163.5185 C.ar    1  UNL1        0.0685
      5 C         140.0273  138.4351  162.8417 C.ar    1  UNL1        0.0885
      6 C         138.9793  137.6862  163.6101 C.ar    1  UNL1        0.1263
      7 N         138.7370  138.0062  165.0554 N.ar    1  UNL1       -0.1633
      8 N         139.5428  139.0750  165.7323 N.ar    1  UNL1       -0.2270
      9 C         139.5284  139.6062  167.1350 C.ar    1  UNL1        0.1004
     10 C         142.2138  139.4688  169.4277 C.3     1  UNL1        0.0327
     11 C         141.7160  140.8779  169.5558 C.ar    1  UNL1       -0.0026
     12 C         142.0413  141.6799  170.7810 C.ar    1  UNL1        0.0946
     13 N         141.5436  143.0891  170.9091 N.ar    1  UNL1       -0.2426
     14 C         140.7206  143.6964  169.8120 C.ar    1  UNL1        0.0989
     15 C         140.3952  142.8945  168.5868 C.ar    1  UNL1        0.0204
     16 C         140.8930  141.4853  168.4586 C.ar    1  UNL1        0.0006
     17 C         140.2696  138.1151  161.3963 C.2     1  UNL1        0.2456
     18 N         139.1662  138.2872  160.3949 N.am    1  UNL1       -0.3252
     19 O         141.6153  137.6231  160.9524 O.2     1  UNL1       -0.2703
     20 H         138.2830  138.6102  160.6862 H       1  UNL1        0.1453
     21 H         139.3252  138.0772  159.4463 H       1  UNL1        0.1453
     22 N         141.8813  140.2530  162.7499 N.pl3   1  UNL1       -0.3327
     23 H         142.7953  139.8930  162.6848 H       1  UNL1        0.1468
     24 C         141.5368  141.5504  162.0806 C.3     1  UNL1        0.0702
     25 C         140.2890  141.8347  161.2982 C.3     1  UNL1        0.0208
     26 C         140.3605  143.2513  160.8102 C.3     1  UNL1        0.0160
     27 C         141.6525  143.8425  161.2910 C.3     1  UNL1        0.0404
     28 C         141.1748  145.0710  160.5751 C.3     1  UNL1        0.0156
     29 N         142.8447  144.6905  161.6221 N.3     1  UNL1       -0.3231
     30 C         142.3795  142.7913  162.0761 C.3     1  UNL1        0.0282
     31 C         143.4197  143.8590  162.2432 C.3     1  UNL1        0.0029
     32 C         143.3239  141.9633  162.8962 C.3     1  UNL1        0.0029
     33 H         142.7266  145.6175  161.2133 H       1  UNL1        0.1188
     34 H         143.6864  144.2565  161.2432 H       1  UNL1        0.1188
@<TRIPOS>BOND
     1    10    11    1
     2    11    12   ar
     3    12    13   ar
     4    13    14   ar
     5    14    15   ar
     6    15    16   ar
     7    16     1    1
     8     1     2   ar
     9     2     3   ar
    10     3     4   ar
    11     4    22    1
    12    24    22    1
    13    24    25    1
    14    25    26    1
    15    26    27    1
    16    27    28    1
    17    27    29    1
    18    27    30    1
    19    30    31    1
    20    30    32    1
    21     4     5   ar
    22     5    17    1
    23    17    18   am
    24    17    19    2
    25     5     6   ar
    26     6     7   ar
    27     7     8   ar
    28     8     9   ar
    29    16    11   ar
    30     9     1   ar
    31     8     3   ar
    32    30    24    1
    33    22    23    1
    34    29    33    1
    35    29    34    1
    36    18    20    1
    37    18    21    1
