@<TRIPOS>MOLECULE
*****
 29 32 0 0 0
SMALL
GASTEIGER

@<TRIPOS>ATOM
      1 C         141.8397  138.6868  163.6083 C.3     1  UNL1        0.0236
      2 C         140.8289  139.7912  163.7031 C.3     1  UNL1        0.0987
      3 C         140.1782  140.3208  162.4597 C.3     1  UNL1        0.1285
      4 N         139.1674  141.4251  162.5544 N.ar    1  UNL1       -0.2944
      5 C         138.8074  141.9997  163.8924 C.ar    1  UNL1        0.1636
      6 N         137.7839  143.0744  163.6752 N.ar    1  UNL1       -0.1315
      7 N         137.5113  143.1641  162.2029 N.ar    1  UNL1       -0.1274
      8 C         138.3663  142.1447  161.5102 C.ar    1  UNL1        0.1856
      9 C         139.4582  141.4700  165.1357 C.3     1  UNL1        0.1598
     10 N         140.4690  140.3657  165.0410 N.am    1  UNL1       -0.2687
     11 C         141.1198  139.8360  166.2844 C.2     1  UNL1        0.2502
     12 O         142.1306  138.7317  166.1898 O.2     1  UNL1       -0.2699
     13 C         140.7598  140.4105  167.6224 C.ar    1  UNL1        0.0641
     14 C         139.5280  139.9368  168.3353 C.ar    1  UNL1        0.0054
     15 C         139.1680  140.5113  169.6733 C.ar    1  UNL1        0.0001
     16 C         140.0398  141.5597  170.2985 C.ar    1  UNL1        0.0047
     17 C         141.2716  142.0335  169.5856 C.ar    1  UNL1        0.0821
     18 C         141.6316  141.4589  168.2476 C.ar    1  UNL1        0.0659
     19 CL        142.8634  141.9327  167.5347 Cl      1  UNL1       -0.0822
     20 C         142.1435  143.0819  170.2107 C.3     1  UNL1        0.4194
     21 F         143.0155  144.1302  170.8358 F       1  UNL1       -0.1658
     22 F         143.1670  142.0354  170.5382 F       1  UNL1       -0.1658
     23 F         141.1201  144.1284  169.8832 F       1  UNL1       -0.1658
     24 C         138.4122  141.8898  160.0327 C.ar    1  UNL1        0.1362
     25 C         138.1571  140.5105  159.5014 C.ar    1  UNL1        0.1211
     26 N         138.2030  140.2556  158.0238 N.ar    1  UNL1       -0.2390
     27 C         138.5040  141.3799  157.0778 C.ar    1  UNL1        0.1195
     28 C         138.7591  142.7593  157.6092 C.ar    1  UNL1        0.1196
     29 N         138.7133  143.0143  159.0866 N.ar    1  UNL1       -0.2375
@<TRIPOS>BOND
     1     2     1    1
     2     2     3    1
     3     3     4    1
     4     4     5   ar
     5     5     6   ar
     6     6     7   ar
     7     7     8   ar
     8     8    24    1
     9    24    25   ar
    10    25    26   ar
    11    26    27   ar
    12    27    28   ar
    13    28    29   ar
    14     5     9    1
    15     9    10    1
    16    10    11   am
    17    11    12    2
    18    11    13    1
    19    13    14   ar
    20    14    15   ar
    21    15    16   ar
    22    16    17   ar
    23    17    20    1
    24    20    21    1
    25    20    22    1
    26    20    23    1
    27    17    18   ar
    28    18    19    1
    29    10     2    1
    30    18    13   ar
    31     8     4   ar
    32    29    24   ar
@<TRIPOS>MOLECULE
*****
 29 32 0 0 0
SMALL
GASTEIGER

@<TRIPOS>ATOM
      1 C         141.7624  139.4511  163.0984 C.3     1  UNL1        0.0236
      2 C         141.0644  140.7485  163.3810 C.3     1  UNL1        0.0987
      3 C         140.6709  141.6505  162.2490 C.3     1  UNL1        0.1285
      4 N         139.9730  142.9478  162.5316 N.ar    1  UNL1       -0.2944
      5 C         139.6685  143.3431  163.9462 C.ar    1  UNL1        0.1636
      6 N         138.9752  144.6729  163.9169 N.ar    1  UNL1       -0.1315
      7 N         138.8511  145.0995  162.4842 N.ar    1  UNL1       -0.1274
      8 C         139.4678  144.0334  161.6280 C.ar    1  UNL1        0.1856
      9 C         140.0620  142.4411  165.0782 C.3     1  UNL1        0.1598
     10 N         140.7600  141.1437  164.7956 N.am    1  UNL1       -0.2687
     11 C         141.1535  140.2416  165.9277 C.2     1  UNL1        0.2502
     12 O         141.8514  138.9443  165.6451 O.2     1  UNL1       -0.2699
     13 C         140.8490  140.6369  167.3422 C.ar    1  UNL1        0.0641
     14 C         139.6382  140.0818  168.0321 C.ar    1  UNL1        0.0054
     15 C         139.3338  140.4771  169.4467 C.ar    1  UNL1        0.0001
     16 C         140.2400  141.4275  170.1714 C.ar    1  UNL1        0.0047
     17 C         141.4508  141.9827  169.4816 C.ar    1  UNL1        0.0821
     18 C         141.7553  141.5874  168.0670 C.ar    1  UNL1        0.0659
     19 CL        142.9660  142.1425  167.3772 Cl      1  UNL1       -0.0822
     20 C         142.3572  142.9332  170.2063 C.3     1  UNL1        0.4194
     21 F         143.2634  143.8837  170.9309 F       1  UNL1       -0.1658
     22 F         141.3820  144.0470  169.9647 F       1  UNL1       -0.1658
     23 F         143.3322  141.8193  170.4478 F       1  UNL1       -0.1658
     24 C         139.5626  144.0499  160.1311 C.ar    1  UNL1        0.1362
     25 C         140.4239  145.0687  159.4454 C.ar    1  UNL1        0.1211
     26 N         140.5187  145.0852  157.9484 N.ar    1  UNL1       -0.2390
     27 C         139.7524  144.0830  157.1373 C.ar    1  UNL1        0.1195
     28 C         138.8911  143.0641  157.8231 C.ar    1  UNL1        0.1196
     29 N         138.7962  143.0475  159.3199 N.ar    1  UNL1       -0.2375
@<TRIPOS>BOND
     1     2     1    1
     2     2     3    1
     3     3     4    1
     4     4     5   ar
     5     5     6   ar
     6     6     7   ar
     7     7     8   ar
     8     8    24    1
     9    24    25   ar
    10    25    26   ar
    11    26    27   ar
    12    27    28   ar
    13    28    29   ar
    14     5     9    1
    15     9    10    1
    16    10    11   am
    17    11    12    2
    18    11    13    1
    19    13    14   ar
    20    14    15   ar
    21    15    16   ar
    22    16    17   ar
    23    17    20    1
    24    20    21    1
    25    20    22    1
    26    20    23    1
    27    17    18   ar
    28    18    19    1
    29    10     2    1
    30    18    13   ar
    31     8     4   ar
    32    29    24   ar
@<TRIPOS>MOLECULE
*****
 29 32 0 0 0
SMALL
GASTEIGER

@<TRIPOS>ATOM
      1 C         143.4119  141.7863  162.9377 C.3     1  UNL1        0.0236
      2 C         142.1869  140.9569  163.1861 C.3     1  UNL1        0.0987
      3 C         141.3475  140.4947  162.0321 C.3     1  UNL1        0.1285
      4 N         140.1226  139.6653  162.2804 N.ar    1  UNL1       -0.2944
      5 C         139.7370  139.2981  163.6828 C.ar    1  UNL1        0.1636
      6 N         138.4844  138.4755  163.6189 N.ar    1  UNL1       -0.1315
      7 N         138.0958  138.3342  162.1770 N.ar    1  UNL1       -0.1274
      8 C         139.1082  139.0696  161.3498 C.ar    1  UNL1        0.1856
      9 C         140.5764  139.7603  164.8368 C.3     1  UNL1        0.1598
     10 N         141.8014  140.5897  164.5884 N.am    1  UNL1       -0.2687
     11 C         142.6409  141.0520  165.7425 C.2     1  UNL1        0.2502
     12 O         143.8658  141.8813  165.4942 O.2     1  UNL1       -0.2699
     13 C         142.2553  140.6848  167.1448 C.ar    1  UNL1        0.0641
     14 C         142.8203  139.4482  167.7786 C.ar    1  UNL1        0.0054
     15 C         142.4348  139.0811  169.1810 C.ar    1  UNL1        0.0001
     16 C         141.4842  139.9504  169.9495 C.ar    1  UNL1        0.0047
     17 C         140.9192  141.1870  169.3157 C.ar    1  UNL1        0.0821
     18 C         141.3048  141.5541  167.9134 C.ar    1  UNL1        0.0659
     19 CL        140.7398  142.7907  167.2795 Cl      1  UNL1       -0.0822
     20 C         139.9686  142.0564  170.0842 C.3     1  UNL1        0.4194
     21 F         139.0180  142.9258  170.8526 F       1  UNL1       -0.1658
     22 F         138.8629  141.0766  169.8248 F       1  UNL1       -0.1658
     23 F         141.0744  143.0362  170.3435 F       1  UNL1       -0.1658
     24 C         139.1065  139.1883  159.8545 C.ar    1  UNL1        0.1362
     25 C         138.1370  140.1104  159.1765 C.ar    1  UNL1        0.1211
     26 N         138.1353  140.2292  157.6811 N.ar    1  UNL1       -0.2390
     27 C         139.1031  139.4259  156.8639 C.ar    1  UNL1        0.1195
     28 C         140.0726  138.5037  157.5420 C.ar    1  UNL1        0.1196
     29 N         140.0744  138.3849  159.0372 N.ar    1  UNL1       -0.2375
@<TRIPOS>BOND
     1     2     1    1
     2     2     3    1
     3     3     4    1
     4     4     5   ar
     5     5     6   ar
     6     6     7   ar
     7     7     8   ar
     8     8    24    1
     9    24    25   ar
    10    25    26   ar
    11    26    27   ar
    12    27    28   ar
    13    28    29   ar
    14     5     9    1
    15     9    10    1
    16    10    11   am
    17    11    12    2
    18    11    13    1
    19    13    14   ar
    20    14    15   ar
    21    15    16   ar
    22    16    17   ar
    23    17    20    1
    24    20    21    1
    25    20    22    1
    26    20    23    1
    27    17    18   ar
    28    18    19    1
    29    10     2    1
    30    18    13   ar
    31     8     4   ar
    32    29    24   ar
@<TRIPOS>MOLECULE
*****
 29 32 0 0 0
SMALL
GASTEIGER

@<TRIPOS>ATOM
      1 C         140.6303  138.9124  162.6028 C.3     1  UNL1        0.0236
      2 C         140.8107  140.2985  163.1474 C.3     1  UNL1        0.0987
      3 C         141.0641  141.4442  162.2130 C.3     1  UNL1        0.1285
      4 N         141.2445  142.8302  162.7574 N.ar    1  UNL1       -0.2944
      5 C         141.1715  143.0705  164.2362 C.ar    1  UNL1        0.1636
      6 N         141.3871  144.5349  164.4791 N.ar    1  UNL1       -0.1315
      7 N         141.5934  145.1996  163.1504 N.ar    1  UNL1       -0.1274
      8 C         141.5053  144.1461  162.0863 C.ar    1  UNL1        0.1856
      9 C         140.9181  141.9248  165.1706 C.3     1  UNL1        0.1598
     10 N         140.7377  140.5387  164.6261 N.am    1  UNL1       -0.2687
     11 C         140.4842  139.3929  165.5605 C.2     1  UNL1        0.2502
     12 O         140.3038  138.0069  165.0161 O.2     1  UNL1       -0.2699
     13 C         140.4112  139.6332  167.0394 C.ar    1  UNL1        0.0641
     14 C         139.1075  140.0191  167.6730 C.ar    1  UNL1        0.0054
     15 C         139.0345  140.2594  169.1519 C.ar    1  UNL1        0.0001
     16 C         140.2651  140.1138  169.9970 C.ar    1  UNL1        0.0047
     17 C         141.5688  139.7280  169.3634 C.ar    1  UNL1        0.0821
     18 C         141.6418  139.4877  167.8845 C.ar    1  UNL1        0.0659
     19 CL        142.9455  139.1018  167.2509 Cl      1  UNL1       -0.0822
     20 C         142.7996  139.5824  170.2085 C.3     1  UNL1        0.4194
     21 F         144.0303  139.4369  171.0535 F       1  UNL1       -0.1658
     22 F         143.0220  141.0642  170.1397 F       1  UNL1       -0.1658
     23 F         142.5771  138.1006  170.2772 F       1  UNL1       -0.1658
     24 C         141.6521  144.3693  160.6103 C.ar    1  UNL1        0.1362
     25 C         140.6950  145.2716  159.8894 C.ar    1  UNL1        0.1211
     26 N         140.8418  145.4948  158.4133 N.ar    1  UNL1       -0.2390
     27 C         141.9458  144.8158  157.6583 C.ar    1  UNL1        0.1195
     28 C         142.9029  143.9135  158.3793 C.ar    1  UNL1        0.1196
     29 N         142.7561  143.6902  159.8552 N.ar    1  UNL1       -0.2375
@<TRIPOS>BOND
     1     2     1    1
     2     2     3    1
     3     3     4    1
     4     4     5   ar
     5     5     6   ar
     6     6     7   ar
     7     7     8   ar
     8     8    24    1
     9    24    25   ar
    10    25    26   ar
    11    26    27   ar
    12    27    28   ar
    13    28    29   ar
    14     5     9    1
    15     9    10    1
    16    10    11   am
    17    11    12    2
    18    11    13    1
    19    13    14   ar
    20    14    15   ar
    21    15    16   ar
    22    16    17   ar
    23    17    20    1
    24    20    21    1
    25    20    22    1
    26    20    23    1
    27    17    18   ar
    28    18    19    1
    29    10     2    1
    30    18    13   ar
    31     8     4   ar
    32    29    24   ar
@<TRIPOS>MOLECULE
*****
 29 32 0 0 0
SMALL
GASTEIGER

@<TRIPOS>ATOM
      1 C         140.6278  139.0674  163.2338 C.3     1  UNL1        0.0236
      2 C         141.4790  140.2753  163.4919 C.3     1  UNL1        0.0987
      3 C         142.0279  141.0656  162.3413 C.3     1  UNL1        0.1285
      4 N         142.8792  142.2735  162.5993 N.ar    1  UNL1       -0.2944
      5 C         143.1815  142.6909  164.0080 C.ar    1  UNL1        0.1636
      6 N         144.0437  143.9171  163.9533 N.ar    1  UNL1       -0.1315
      7 N         144.2743  144.2575  162.5107 N.ar    1  UNL1       -0.1274
      8 C         143.5546  143.2417  161.6739 C.ar    1  UNL1        0.1856
      9 C         142.6325  141.9005  165.1587 C.3     1  UNL1        0.1598
     10 N         141.7813  140.6926  164.9005 N.am    1  UNL1       -0.2687
     11 C         141.2323  139.9022  166.0512 C.2     1  UNL1        0.2502
     12 O         140.3811  138.6944  165.7932 O.2     1  UNL1       -0.2699
     13 C         141.5346  140.3196  167.4599 C.ar    1  UNL1        0.0641
     14 C         142.5507  139.5643  168.2643 C.ar    1  UNL1        0.0054
     15 C         142.8530  139.9817  169.6730 C.ar    1  UNL1        0.0001
     16 C         142.1393  141.1545  170.2773 C.ar    1  UNL1        0.0047
     17 C         141.1232  141.9099  169.4728 C.ar    1  UNL1        0.0821
     18 C         140.8209  141.4924  168.0642 C.ar    1  UNL1        0.0659
     19 CL        139.8049  142.2478  167.2597 Cl      1  UNL1       -0.0822
     20 C         140.4094  143.0827  170.0770 C.3     1  UNL1        0.4194
     21 F         139.6957  144.2556  170.6812 F       1  UNL1       -0.1658
     22 F         141.6165  143.9404  169.8379 F       1  UNL1       -0.1658
     23 F         139.2024  142.2250  170.3161 F       1  UNL1       -0.1658
     24 C         143.5169  143.2012  160.1750 C.ar    1  UNL1        0.1362
     25 C         144.4324  142.2785  159.4264 C.ar    1  UNL1        0.1211
     26 N         144.3948  142.2380  157.9273 N.ar    1  UNL1       -0.2390
     27 C         143.4416  143.1202  157.1770 C.ar    1  UNL1        0.1195
     28 C         142.5261  144.0430  157.9257 C.ar    1  UNL1        0.1196
     29 N         142.5637  144.0835  159.4246 N.ar    1  UNL1       -0.2375
@<TRIPOS>BOND
     1     2     1    1
     2     2     3    1
     3     3     4    1
     4     4     5   ar
     5     5     6   ar
     6     6     7   ar
     7     7     8   ar
     8     8    24    1
     9    24    25   ar
    10    25    26   ar
    11    26    27   ar
    12    27    28   ar
    13    28    29   ar
    14     5     9    1
    15     9    10    1
    16    10    11   am
    17    11    12    2
    18    11    13    1
    19    13    14   ar
    20    14    15   ar
    21    15    16   ar
    22    16    17   ar
    23    17    20    1
    24    20    21    1
    25    20    22    1
    26    20    23    1
    27    17    18   ar
    28    18    19    1
    29    10     2    1
    30    18    13   ar
    31     8     4   ar
    32    29    24   ar
@<TRIPOS>MOLECULE
*****
 29 32 0 0 0
SMALL
GASTEIGER

@<TRIPOS>ATOM
      1 C         138.3069  141.2661  161.1386 C.3     1  UNL1        0.0236
      2 C         139.5227  140.5187  161.6004 C.3     1  UNL1        0.0987
      3 C         140.5002  139.9835  160.5964 C.3     1  UNL1        0.1285
      4 N         141.7160  139.2360  161.0581 N.ar    1  UNL1       -0.2944
      5 C         141.9543  139.0238  162.5238 C.ar    1  UNL1        0.1636
      6 N         143.2322  138.2539  162.6790 N.ar    1  UNL1       -0.1315
      7 N         143.7838  137.9904  161.3092 N.ar    1  UNL1       -0.1274
      8 C         142.8468  138.5973  160.3074 C.ar    1  UNL1        0.1856
      9 C         140.9767  139.5590  163.5277 C.3     1  UNL1        0.1598
     10 N         139.7609  140.3065  163.0659 N.am    1  UNL1       -0.2687
     11 C         138.7833  140.8417  164.0700 C.2     1  UNL1        0.2502
     12 O         137.5675  141.5891  163.6083 O.2     1  UNL1       -0.2699
     13 C         139.0216  140.6295  165.5356 C.ar    1  UNL1        0.0641
     14 C         138.3496  139.4933  166.2479 C.ar    1  UNL1        0.0054
     15 C         138.5878  139.2810  167.7136 C.ar    1  UNL1        0.0001
     16 C         139.4981  140.2050  168.4670 C.ar    1  UNL1        0.0047
     17 C         140.1701  141.3413  167.7547 C.ar    1  UNL1        0.0821
     18 C         139.9318  141.5535  166.2890 C.ar    1  UNL1        0.0659
     19 CL        140.6038  142.6897  165.5767 Cl      1  UNL1       -0.0822
     20 C         141.0804  142.2654  168.5080 C.3     1  UNL1        0.4194
     21 F         141.9906  143.1895  169.2613 F       1  UNL1       -0.1658
     22 F         139.9151  143.1554  168.8242 F       1  UNL1       -0.1658
     23 F         142.2456  141.3753  168.1919 F       1  UNL1       -0.1658
     24 C         143.0115  138.5703  158.8168 C.ar    1  UNL1        0.1362
     25 C         143.3252  139.8351  158.0739 C.ar    1  UNL1        0.1211
     26 N         143.4899  139.8081  156.5831 N.ar    1  UNL1       -0.2390
     27 C         143.3411  138.5164  155.8354 C.ar    1  UNL1        0.1195
     28 C         143.0275  137.2515  156.5784 C.ar    1  UNL1        0.1196
     29 N         142.8627  137.2785  158.0690 N.ar    1  UNL1       -0.2375
@<TRIPOS>BOND
     1     2     1    1
     2     2     3    1
     3     3     4    1
     4     4     5   ar
     5     5     6   ar
     6     6     7   ar
     7     7     8   ar
     8     8    24    1
     9    24    25   ar
    10    25    26   ar
    11    26    27   ar
    12    27    28   ar
    13    28    29   ar
    14     5     9    1
    15     9    10    1
    16    10    11   am
    17    11    12    2
    18    11    13    1
    19    13    14   ar
    20    14    15   ar
    21    15    16   ar
    22    16    17   ar
    23    17    20    1
    24    20    21    1
    25    20    22    1
    26    20    23    1
    27    17    18   ar
    28    18    19    1
    29    10     2    1
    30    18    13   ar
    31     8     4   ar
    32    29    24   ar
@<TRIPOS>MOLECULE
*****
 29 32 0 0 0
SMALL
GASTEIGER

@<TRIPOS>ATOM
      1 C         140.1014  143.8053  162.0270 C.3     1  UNL1        0.0236
      2 C         140.8040  142.4836  162.1254 C.3     1  UNL1        0.0987
      3 C         141.8038  142.0861  161.0802 C.3     1  UNL1        0.1285
      4 N         142.5063  140.7645  161.1786 N.ar    1  UNL1       -0.2944
      5 C         142.2091  139.8404  162.3222 C.ar    1  UNL1        0.1636
      6 N         143.0520  138.6108  162.1557 N.ar    1  UNL1       -0.1315
      7 N         143.8702  138.7750  160.9092 N.ar    1  UNL1       -0.1274
      8 C         143.5329  140.1061  160.3054 C.ar    1  UNL1        0.1856
      9 C         141.2094  140.2379  163.3673 C.3     1  UNL1        0.1598
     10 N         140.5068  141.5596  163.2689 N.am    1  UNL1       -0.2687
     11 C         139.5070  141.9571  164.3141 C.2     1  UNL1        0.2502
     12 O         138.8044  143.2788  164.2158 O.2     1  UNL1       -0.2699
     13 C         139.2098  141.0330  165.4577 C.ar    1  UNL1        0.0641
     14 C         138.2167  139.9221  165.2856 C.ar    1  UNL1        0.0054
     15 C         137.9195  138.9980  166.4292 C.ar    1  UNL1        0.0001
     16 C         138.6154  139.1848  167.7448 C.ar    1  UNL1        0.0047
     17 C         139.6084  140.2958  167.9169 C.ar    1  UNL1        0.0821
     18 C         139.9056  141.2199  166.7733 C.ar    1  UNL1        0.0659
     19 CL        140.8987  142.3309  166.9454 Cl      1  UNL1       -0.0822
     20 C         140.3044  140.4827  169.2325 C.3     1  UNL1        0.4194
     21 F         141.0004  140.6696  170.5480 F       1  UNL1       -0.1658
     22 F         141.3837  139.5370  168.7958 F       1  UNL1       -0.1658
     23 F         139.2251  141.4284  169.6691 F       1  UNL1       -0.1658
     24 C         144.1193  140.6782  159.0488 C.ar    1  UNL1        0.1362
     25 C         144.6108  142.0952  159.0281 C.ar    1  UNL1        0.1211
     26 N         145.1973  142.6674  157.7716 N.ar    1  UNL1       -0.2390
     27 C         145.2922  141.8225  156.5359 C.ar    1  UNL1        0.1195
     28 C         144.8006  140.4054  156.5566 C.ar    1  UNL1        0.1196
     29 N         144.2142  139.8333  157.8131 N.ar    1  UNL1       -0.2375
@<TRIPOS>BOND
     1     2     1    1
     2     2     3    1
     3     3     4    1
     4     4     5   ar
     5     5     6   ar
     6     6     7   ar
     7     7     8   ar
     8     8    24    1
     9    24    25   ar
    10    25    26   ar
    11    26    27   ar
    12    27    28   ar
    13    28    29   ar
    14     5     9    1
    15     9    10    1
    16    10    11   am
    17    11    12    2
    18    11    13    1
    19    13    14   ar
    20    14    15   ar
    21    15    16   ar
    22    16    17   ar
    23    17    20    1
    24    20    21    1
    25    20    22    1
    26    20    23    1
    27    17    18   ar
    28    18    19    1
    29    10     2    1
    30    18    13   ar
    31     8     4   ar
    32    29    24   ar
@<TRIPOS>MOLECULE
*****
 29 32 0 0 0
SMALL
GASTEIGER

@<TRIPOS>ATOM
      1 C         138.3550  143.9115  165.0424 C.3     1  UNL1        0.0236
      2 C         139.5598  143.1457  164.5816 C.3     1  UNL1        0.0987
      3 C         140.4542  142.4801  165.5851 C.3     1  UNL1        0.1285
      4 N         141.6589  141.7143  165.1244 N.ar    1  UNL1       -0.2944
      5 C         141.9692  141.6142  163.6602 C.ar    1  UNL1        0.1636
      6 N         143.2177  140.7973  163.5057 N.ar    1  UNL1       -0.1315
      7 N         143.6791  140.3925  164.8744 N.ar    1  UNL1       -0.1274
      8 C         142.7157  140.9593  165.8748 C.ar    1  UNL1        0.1856
      9 C         141.0748  142.2799  162.6568 C.3     1  UNL1        0.1598
     10 N         139.8701  143.0456  163.1176 N.am    1  UNL1       -0.2687
     11 C         138.9756  143.7113  162.1141 C.2     1  UNL1        0.2502
     12 O         137.7708  144.4771  162.5748 O.2     1  UNL1       -0.2699
     13 C         139.2859  143.6112  160.6499 C.ar    1  UNL1        0.0641
     14 C         138.6233  142.5572  159.8132 C.ar    1  UNL1        0.0054
     15 C         138.9336  142.4571  158.3491 C.ar    1  UNL1        0.0001
     16 C         139.9064  143.4110  157.7217 C.ar    1  UNL1        0.0047
     17 C         140.5690  144.4650  158.5584 C.ar    1  UNL1        0.0821
     18 C         140.2587  144.5651  160.0225 C.ar    1  UNL1        0.0659
     19 CL        140.9213  145.6191  160.8593 Cl      1  UNL1       -0.0822
     20 C         141.5419  145.4190  157.9310 C.3     1  UNL1        0.4194
     21 F         142.5149  146.3728  157.3038 F       1  UNL1       -0.1658
     22 F         142.6638  144.4675  158.2244 F       1  UNL1       -0.1658
     23 F         140.4200  146.3703  157.6378 F       1  UNL1       -0.1658
     24 C         142.7952  140.7991  167.3641 C.ar    1  UNL1        0.1362
     25 C         142.6643  139.4376  167.9800 C.ar    1  UNL1        0.1211
     26 N         142.7438  139.2773  169.4693 N.ar    1  UNL1       -0.2390
     27 C         142.9541  140.4785  170.3427 C.ar    1  UNL1        0.1195
     28 C         143.0849  141.8400  169.7267 C.ar    1  UNL1        0.1196
     29 N         143.0054  142.0003  168.2375 N.ar    1  UNL1       -0.2375
@<TRIPOS>BOND
     1     2     1    1
     2     2     3    1
     3     3     4    1
     4     4     5   ar
     5     5     6   ar
     6     6     7   ar
     7     7     8   ar
     8     8    24    1
     9    24    25   ar
    10    25    26   ar
    11    26    27   ar
    12    27    28   ar
    13    28    29   ar
    14     5     9    1
    15     9    10    1
    16    10    11   am
    17    11    12    2
    18    11    13    1
    19    13    14   ar
    20    14    15   ar
    21    15    16   ar
    22    16    17   ar
    23    17    20    1
    24    20    21    1
    25    20    22    1
    26    20    23    1
    27    17    18   ar
    28    18    19    1
    29    10     2    1
    30    18    13   ar
    31     8     4   ar
    32    29    24   ar
@<TRIPOS>MOLECULE
*****
 29 32 0 0 0
SMALL
GASTEIGER

@<TRIPOS>ATOM
      1 C         137.4852  141.5981  162.8432 C.3     1  UNL1        0.0236
      2 C         138.9108  141.9903  162.5900 C.3     1  UNL1        0.0987
      3 C         139.2812  142.6895  161.3157 C.3     1  UNL1        0.1285
      4 N         140.7067  143.0817  161.0626 N.ar    1  UNL1       -0.2944
      5 C         141.7618  142.7747  162.0837 C.ar    1  UNL1        0.1636
      6 N         143.0740  143.2792  161.5605 N.ar    1  UNL1       -0.1315
      7 N         142.8299  143.8979  160.2161 N.ar    1  UNL1       -0.1274
      8 C         141.3669  143.7759  159.9083 C.ar    1  UNL1        0.1856
      9 C         141.3913  142.0756  163.3580 C.3     1  UNL1        0.1598
     10 N         139.9657  141.6833  163.6111 N.am    1  UNL1       -0.2687
     11 C         139.5952  140.9841  164.8855 C.2     1  UNL1        0.2502
     12 O         138.1697  140.5919  165.1387 O.2     1  UNL1       -0.2699
     13 C         140.6502  140.6771  165.9066 C.ar    1  UNL1        0.0641
     14 C         141.3703  139.3618  165.8690 C.ar    1  UNL1        0.0054
     15 C         142.4254  139.0549  166.8901 C.ar    1  UNL1        0.0001
     16 C         142.7603  140.0632  167.9489 C.ar    1  UNL1        0.0047
     17 C         142.0402  141.3785  167.9865 C.ar    1  UNL1        0.0821
     18 C         140.9852  141.6855  166.9654 C.ar    1  UNL1        0.0659
     19 CL        140.2651  143.0008  167.0031 Cl      1  UNL1       -0.0822
     20 C         142.3751  142.3870  169.0453 C.3     1  UNL1        0.4194
     21 F         142.7099  143.3953  170.1042 F       1  UNL1       -0.1658
     22 F         141.1214  142.0260  169.7855 F       1  UNL1       -0.1658
     23 F         143.6288  142.7478  168.3051 F       1  UNL1       -0.1658
     24 C         140.6840  144.2626  158.6646 C.ar    1  UNL1        0.1362
     25 C         139.9954  143.2873  157.7565 C.ar    1  UNL1        0.1211
     26 N         139.3124  143.7739  156.5128 N.ar    1  UNL1       -0.2390
     27 C         139.3181  145.2358  156.1772 C.ar    1  UNL1        0.1195
     28 C         140.0067  146.2111  157.0853 C.ar    1  UNL1        0.1196
     29 N         140.6896  145.7245  158.3290 N.ar    1  UNL1       -0.2375
@<TRIPOS>BOND
     1     2     1    1
     2     2     3    1
     3     3     4    1
     4     4     5   ar
     5     5     6   ar
     6     6     7   ar
     7     7     8   ar
     8     8    24    1
     9    24    25   ar
    10    25    26   ar
    11    26    27   ar
    12    27    28   ar
    13    28    29   ar
    14     5     9    1
    15     9    10    1
    16    10    11   am
    17    11    12    2
    18    11    13    1
    19    13    14   ar
    20    14    15   ar
    21    15    16   ar
    22    16    17   ar
    23    17    20    1
    24    20    21    1
    25    20    22    1
    26    20    23    1
    27    17    18   ar
    28    18    19    1
    29    10     2    1
    30    18    13   ar
    31     8     4   ar
    32    29    24   ar
