@<TRIPOS>MOLECULE
*****
 33 37 0 0 0
SMALL
GASTEIGER

@<TRIPOS>ATOM
      1 C         139.8908  140.9822  167.1179 C.ar    1  UNL1        0.0004
      2 C         139.0141  139.8031  166.8159 C.ar    1  UNL1        0.0031
      3 C         138.3065  139.7131  165.4965 C.ar    1  UNL1        0.0370
      4 C         138.4755  140.8022  164.4789 C.ar    1  UNL1        0.1415
      5 C         139.3522  141.9813  164.7809 C.ar    1  UNL1        0.0699
      6 C         140.0598  142.0713  166.1004 C.ar    1  UNL1        0.0061
      7 C         139.6556  143.1674  163.9143 C.ar    1  UNL1        0.1718
      8 N         140.5566  144.2900  164.3360 N.ar    1  UNL1       -0.1258
      9 N         140.6152  145.2839  163.2139 N.ar    1  UNL1       -0.0913
     10 C         139.7504  144.7754  162.0988 C.ar    1  UNL1        0.3248
     11 N         139.1574  143.4673  162.5316 N.ar    1  UNL1       -0.2613
     12 C         138.2326  142.6553  161.6741 C.3     1  UNL1        0.1592
     13 C         137.5777  141.3427  161.9874 C.3     1  UNL1        0.2299
     14 O         137.6858  140.5180  163.2357 O.3     1  UNL1       -0.4733
     15 C         144.0111  142.4489  169.9237 C.3     1  UNL1        0.0521
     16 C         142.6586  141.8056  169.8404 C.ar    1  UNL1        0.0594
     17 C         141.9509  141.7156  168.5208 C.ar    1  UNL1        0.0147
     18 C         140.5985  141.0723  168.4375 C.ar    1  UNL1        0.0027
     19 C         139.9536  140.5190  169.6736 C.ar    1  UNL1        0.0207
     20 C         140.6612  140.6091  170.9931 C.ar    1  UNL1        0.0984
     21 N         142.0138  141.2524  171.0765 N.ar    1  UNL1       -0.2481
     22 O         139.5193  145.4556  160.7820 O.3     1  UNL1       -0.4223
     23 C         140.4320  145.1786  159.6243 C.ar    1  UNL1        0.1517
     24 C         141.5640  144.2064  159.7775 C.ar    1  UNL1        0.0378
     25 C         142.4766  143.9294  158.6197 C.ar    1  UNL1        0.0062
     26 C         142.2572  144.6246  157.3088 C.ar    1  UNL1        0.0374
     27 C         141.1252  145.5967  157.1555 C.ar    1  UNL1        0.1499
     28 C         140.2126  145.8737  158.3134 C.ar    1  UNL1        0.0747
     29 O         140.9058  146.2919  155.8446 O.3     1  UNL1       -0.4044
     30 C         139.5112  146.5294  155.3458 C.3     1  UNL1        0.5753
     31 F         138.1166  146.7669  154.8470 F       1  UNL1       -0.1328
     32 F         139.3025  145.0490  155.2243 F       1  UNL1       -0.1328
     33 F         139.7199  148.0098  155.4673 F       1  UNL1       -0.1328
@<TRIPOS>BOND
     1    15    16    1
     2    16    17   ar
     3    17    18   ar
     4    18     1    1
     5     1     2   ar
     6     2     3   ar
     7     3     4   ar
     8     4     5   ar
     9     5     6   ar
    10     5     7    1
    11     7     8   ar
    12     8     9   ar
    13     9    10   ar
    14    10    22    1
    15    22    23    1
    16    23    24   ar
    17    24    25   ar
    18    25    26   ar
    19    26    27   ar
    20    27    29    1
    21    29    30    1
    22    30    31    1
    23    30    32    1
    24    30    33    1
    25    27    28   ar
    26    10    11   ar
    27    11    12    1
    28    12    13    1
    29    13    14    1
    30    18    19   ar
    31    19    20   ar
    32    20    21   ar
    33    21    16   ar
    34     6     1   ar
    35    11     7   ar
    36    14     4    1
    37    28    23   ar
@<TRIPOS>MOLECULE
*****
 33 37 0 0 0
SMALL
GASTEIGER

@<TRIPOS>ATOM
      1 C         139.8758  140.9128  167.1573 C.ar    1  UNL1        0.0004
      2 C         139.0108  139.7199  166.8768 C.ar    1  UNL1        0.0031
      3 C         138.3093  139.5960  165.5567 C.ar    1  UNL1        0.0370
      4 C         138.4728  140.6650  164.5173 C.ar    1  UNL1        0.1415
      5 C         139.3378  141.8579  164.7978 C.ar    1  UNL1        0.0699
      6 C         140.0393  141.9818  166.1179 C.ar    1  UNL1        0.0061
      7 C         139.6343  143.0282  163.9078 C.ar    1  UNL1        0.1718
      8 N         140.5237  144.1675  164.3093 N.ar    1  UNL1       -0.1258
      9 N         140.5781  145.1381  163.1669 N.ar    1  UNL1       -0.0913
     10 C         139.7223  144.5987  162.0593 C.ar    1  UNL1        0.3248
     11 N         139.1390  143.2948  162.5172 N.ar    1  UNL1       -0.2613
     12 C         138.2249  142.4567  161.6733 C.3     1  UNL1        0.1592
     13 C         137.5803  141.1453  162.0115 C.3     1  UNL1        0.2299
     14 O         137.6907  140.3478  163.2773 O.3     1  UNL1       -0.4733
     15 C         143.9924  142.4318  169.9406 C.3     1  UNL1        0.0521
     16 C         142.6356  141.7962  169.8691 C.ar    1  UNL1        0.0594
     17 C         141.9341  141.6723  168.5490 C.ar    1  UNL1        0.0147
     18 C         140.5773  141.0367  168.4774 C.ar    1  UNL1        0.0027
     19 C         139.9220  140.5250  169.7259 C.ar    1  UNL1        0.0207
     20 C         140.6234  140.6490  171.0460 C.ar    1  UNL1        0.0984
     21 N         141.9803  141.2845  171.1176 N.ar    1  UNL1       -0.2481
     22 O         139.4905  145.2491  160.7277 O.3     1  UNL1       -0.4223
     23 C         140.4740  145.0476  159.6131 C.ar    1  UNL1        0.1517
     24 C         140.3173  145.8059  158.3284 C.ar    1  UNL1        0.0378
     25 C         141.3009  145.6043  157.2139 C.ar    1  UNL1        0.0062
     26 C         142.4409  144.6445  157.3842 C.ar    1  UNL1        0.0374
     27 C         142.5976  143.8863  158.6689 C.ar    1  UNL1        0.1499
     28 C         141.6140  144.0878  159.7834 C.ar    1  UNL1        0.0747
     29 O         143.7376  142.9265  158.8391 O.3     1  UNL1       -0.4044
     30 C         143.8006  142.0440  160.0505 C.3     1  UNL1        0.5753
     31 F         143.8636  141.1615  161.2618 F       1  UNL1       -0.1328
     32 F         142.9641  141.0174  159.3461 F       1  UNL1       -0.1328
     33 F         144.6370  143.0707  160.7549 F       1  UNL1       -0.1328
@<TRIPOS>BOND
     1    15    16    1
     2    16    17   ar
     3    17    18   ar
     4    18     1    1
     5     1     2   ar
     6     2     3   ar
     7     3     4   ar
     8     4     5   ar
     9     5     6   ar
    10     5     7    1
    11     7     8   ar
    12     8     9   ar
    13     9    10   ar
    14    10    22    1
    15    22    23    1
    16    23    24   ar
    17    24    25   ar
    18    25    26   ar
    19    26    27   ar
    20    27    29    1
    21    29    30    1
    22    30    31    1
    23    30    32    1
    24    30    33    1
    25    27    28   ar
    26    10    11   ar
    27    11    12    1
    28    12    13    1
    29    13    14    1
    30    18    19   ar
    31    19    20   ar
    32    20    21   ar
    33    21    16   ar
    34     6     1   ar
    35    11     7   ar
    36    14     4    1
    37    28    23   ar
@<TRIPOS>MOLECULE
*****
 33 37 0 0 0
SMALL
GASTEIGER

@<TRIPOS>ATOM
      1 C         140.5143  140.2450  167.6120 C.ar    1  UNL1        0.0004
      2 C         139.0699  139.8470  167.5417 C.ar    1  UNL1        0.0031
      3 C         138.5505  139.1184  166.3379 C.ar    1  UNL1        0.0370
      4 C         139.4755  138.7878  165.2043 C.ar    1  UNL1        0.1415
      5 C         140.9200  139.1859  165.2746 C.ar    1  UNL1        0.0699
      6 C         141.4394  139.9145  166.4784 C.ar    1  UNL1        0.0061
      7 C         142.0037  138.9560  164.2634 C.ar    1  UNL1        0.1718
      8 N         143.4214  139.4073  164.4543 N.ar    1  UNL1       -0.1258
      9 N         144.2045  139.0015  163.2410 N.ar    1  UNL1       -0.0913
     10 C         143.2708  138.2994  162.3002 C.ar    1  UNL1        0.3248
     11 N         141.9106  138.2713  162.9320 N.ar    1  UNL1       -0.2613
     12 C         140.7108  137.6473  162.2831 C.3     1  UNL1        0.1592
     13 C         139.3077  137.5539  162.8053 C.3     1  UNL1        0.2299
     14 O         138.7580  138.0615  164.1054 O.3     1  UNL1       -0.4733
     15 C         144.3661  142.7450  170.0440 C.3     1  UNL1        0.0521
     16 C         142.9597  142.2237  170.0319 C.ar    1  UNL1        0.0594
     17 C         142.4402  141.4950  168.8280 C.ar    1  UNL1        0.0147
     18 C         141.0338  140.9737  168.8159 C.ar    1  UNL1        0.0027
     19 C         140.1468  141.1810  170.0077 C.ar    1  UNL1        0.0207
     20 C         140.6662  141.9096  171.2115 C.ar    1  UNL1        0.0984
     21 N         142.0727  142.4310  171.2237 N.ar    1  UNL1       -0.2481
     22 O         143.6336  137.7260  160.9624 O.3     1  UNL1       -0.4223
     23 C         143.3043  138.4807  159.7086 C.ar    1  UNL1        0.1517
     24 C         142.5910  137.7912  158.5836 C.ar    1  UNL1        0.0378
     25 C         142.2618  138.5460  157.3298 C.ar    1  UNL1        0.0062
     26 C         142.6459  139.9902  157.2011 C.ar    1  UNL1        0.0374
     27 C         143.3592  140.6798  158.3261 C.ar    1  UNL1        0.1499
     28 C         143.6884  139.9250  159.5799 C.ar    1  UNL1        0.0747
     29 O         143.7433  142.1240  158.1975 O.3     1  UNL1       -0.4044
     30 C         145.1890  142.5087  158.0879 C.3     1  UNL1        0.5753
     31 F         146.6347  142.8935  157.9784 F       1  UNL1       -0.1328
     32 F         145.1300  142.3075  156.6027 F       1  UNL1       -0.1328
     33 F         145.2479  142.7100  159.5732 F       1  UNL1       -0.1328
@<TRIPOS>BOND
     1    15    16    1
     2    16    17   ar
     3    17    18   ar
     4    18     1    1
     5     1     2   ar
     6     2     3   ar
     7     3     4   ar
     8     4     5   ar
     9     5     6   ar
    10     5     7    1
    11     7     8   ar
    12     8     9   ar
    13     9    10   ar
    14    10    22    1
    15    22    23    1
    16    23    24   ar
    17    24    25   ar
    18    25    26   ar
    19    26    27   ar
    20    27    29    1
    21    29    30    1
    22    30    31    1
    23    30    32    1
    24    30    33    1
    25    27    28   ar
    26    10    11   ar
    27    11    12    1
    28    12    13    1
    29    13    14    1
    30    18    19   ar
    31    19    20   ar
    32    20    21   ar
    33    21    16   ar
    34     6     1   ar
    35    11     7   ar
    36    14     4    1
    37    28    23   ar
@<TRIPOS>MOLECULE
*****
 33 37 0 0 0
SMALL
GASTEIGER

@<TRIPOS>ATOM
      1 C         140.4127  140.2215  167.6051 C.ar    1  UNL1        0.0004
      2 C         138.9598  139.8508  167.5639 C.ar    1  UNL1        0.0031
      3 C         138.4016  139.1367  166.3688 C.ar    1  UNL1        0.0370
      4 C         139.2963  138.7933  165.2148 C.ar    1  UNL1        0.1415
      5 C         140.7492  139.1640  165.2560 C.ar    1  UNL1        0.0699
      6 C         141.3074  139.8781  166.4512 C.ar    1  UNL1        0.0061
      7 C         141.8069  138.9177  164.2214 C.ar    1  UNL1        0.1718
      8 N         143.2366  139.3416  164.3840 N.ar    1  UNL1       -0.1258
      9 N         143.9862  138.9258  163.1530 N.ar    1  UNL1       -0.0913
     10 C         143.0199  138.2450  162.2297 C.ar    1  UNL1        0.3248
     11 N         141.6730  138.2399  162.8899 N.ar    1  UNL1       -0.2613
     12 C         140.4483  137.6411  162.2643 C.3     1  UNL1        0.1592
     13 C         139.0550  137.5720  162.8156 C.3     1  UNL1        0.2299
     14 O         138.5424  138.0848  164.1288 O.3     1  UNL1       -0.4733
     15 C         144.3574  142.6496  169.9597 C.3     1  UNL1        0.0521
     16 C         142.9433  142.1497  169.9776 C.ar    1  UNL1        0.0594
     17 C         142.3850  141.4356  168.7824 C.ar    1  UNL1        0.0147
     18 C         140.9709  140.9356  168.8003 C.ar    1  UNL1        0.0027
     19 C         140.1150  141.1498  170.0134 C.ar    1  UNL1        0.0207
     20 C         140.6732  141.8639  171.2086 C.ar    1  UNL1        0.0984
     21 N         142.0874  142.3639  171.1907 N.ar    1  UNL1       -0.2481
     22 O         143.3437  137.6701  160.8826 O.3     1  UNL1       -0.4223
     23 C         142.8650  138.3582  159.6387 C.ar    1  UNL1        0.1517
     24 C         142.5126  139.8157  159.6762 C.ar    1  UNL1        0.0378
     25 C         142.0339  140.5038  158.4322 C.ar    1  UNL1        0.0062
     26 C         141.9077  139.7344  157.1508 C.ar    1  UNL1        0.0374
     27 C         142.2602  138.2769  157.1133 C.ar    1  UNL1        0.1499
     28 C         142.7388  137.5888  158.3573 C.ar    1  UNL1        0.0747
     29 O         142.1340  137.5075  155.8319 O.3     1  UNL1       -0.4044
     30 C         141.8581  136.0334  155.8662 C.3     1  UNL1        0.5753
     31 F         141.5821  134.5594  155.9006 F       1  UNL1       -0.1328
     32 F         143.3198  135.7554  155.6768 F       1  UNL1       -0.1328
     33 F         140.3963  136.3115  156.0558 F       1  UNL1       -0.1328
@<TRIPOS>BOND
     1    15    16    1
     2    16    17   ar
     3    17    18   ar
     4    18     1    1
     5     1     2   ar
     6     2     3   ar
     7     3     4   ar
     8     4     5   ar
     9     5     6   ar
    10     5     7    1
    11     7     8   ar
    12     8     9   ar
    13     9    10   ar
    14    10    22    1
    15    22    23    1
    16    23    24   ar
    17    24    25   ar
    18    25    26   ar
    19    26    27   ar
    20    27    29    1
    21    29    30    1
    22    30    31    1
    23    30    32    1
    24    30    33    1
    25    27    28   ar
    26    10    11   ar
    27    11    12    1
    28    12    13    1
    29    13    14    1
    30    18    19   ar
    31    19    20   ar
    32    20    21   ar
    33    21    16   ar
    34     6     1   ar
    35    11     7   ar
    36    14     4    1
    37    28    23   ar
@<TRIPOS>MOLECULE
*****
 33 37 0 0 0
SMALL
GASTEIGER

@<TRIPOS>ATOM
      1 C         140.4594  140.3472  167.5515 C.ar    1  UNL1        0.0004
      2 C         139.0119  139.9578  167.4963 C.ar    1  UNL1        0.0031
      3 C         138.4790  139.2188  166.3048 C.ar    1  UNL1        0.0370
      4 C         139.3936  138.8691  165.1684 C.ar    1  UNL1        0.1415
      5 C         140.8411  139.2585  165.2236 C.ar    1  UNL1        0.0699
      6 C         141.3740  139.9975  166.4152 C.ar    1  UNL1        0.0061
      7 C         141.9159  139.0099  164.2073 C.ar    1  UNL1        0.1718
      8 N         143.3379  139.4541  164.3827 N.ar    1  UNL1       -0.1258
      9 N         144.1094  139.0291  163.1685 N.ar    1  UNL1       -0.0913
     10 C         143.1643  138.3224  162.2427 C.ar    1  UNL1        0.3248
     11 N         141.8086  138.3105  162.8847 N.ar    1  UNL1       -0.2613
     12 C         140.6001  137.6869  162.2518 C.3     1  UNL1        0.1592
     13 C         139.2003  137.6087  162.7851 C.3     1  UNL1        0.2299
     14 O         138.6634  138.1349  164.0832 O.3     1  UNL1       -0.4733
     15 C         144.4101  142.6438  170.0250 C.3     1  UNL1        0.0521
     16 C         142.9677  142.2346  169.9798 C.ar    1  UNL1        0.0594
     17 C         142.4347  141.4955  168.7883 C.ar    1  UNL1        0.0147
     18 C         140.9924  141.0863  168.7431 C.ar    1  UNL1        0.0027
     19 C         140.0829  141.4160  169.8895 C.ar    1  UNL1        0.0207
     20 C         140.6158  142.1550  171.0810 C.ar    1  UNL1        0.0984
     21 N         142.0583  142.5643  171.1262 N.ar    1  UNL1       -0.2481
     22 O         143.5136  137.7312  160.9091 O.3     1  UNL1       -0.4223
     23 C         143.1204  138.4414  159.6477 C.ar    1  UNL1        0.1517
     24 C         142.6954  137.6530  158.4444 C.ar    1  UNL1        0.0378
     25 C         142.3022  138.3633  157.1831 C.ar    1  UNL1        0.0062
     26 C         142.3340  139.8618  157.1250 C.ar    1  UNL1        0.0374
     27 C         142.7590  140.6502  158.3283 C.ar    1  UNL1        0.1499
     28 C         143.1522  139.9399  159.5897 C.ar    1  UNL1        0.0747
     29 O         142.7909  142.1487  158.2702 O.3     1  UNL1       -0.4044
     30 C         142.0460  142.9548  159.2927 C.3     1  UNL1        0.5753
     31 F         141.3011  143.7610  160.3151 F       1  UNL1       -0.1328
     32 F         143.3460  143.4804  159.8253 F       1  UNL1       -0.1328
     33 F         140.7461  142.4292  158.7600 F       1  UNL1       -0.1328
@<TRIPOS>BOND
     1    15    16    1
     2    16    17   ar
     3    17    18   ar
     4    18     1    1
     5     1     2   ar
     6     2     3   ar
     7     3     4   ar
     8     4     5   ar
     9     5     6   ar
    10     5     7    1
    11     7     8   ar
    12     8     9   ar
    13     9    10   ar
    14    10    22    1
    15    22    23    1
    16    23    24   ar
    17    24    25   ar
    18    25    26   ar
    19    26    27   ar
    20    27    29    1
    21    29    30    1
    22    30    31    1
    23    30    32    1
    24    30    33    1
    25    27    28   ar
    26    10    11   ar
    27    11    12    1
    28    12    13    1
    29    13    14    1
    30    18    19   ar
    31    19    20   ar
    32    20    21   ar
    33    21    16   ar
    34     6     1   ar
    35    11     7   ar
    36    14     4    1
    37    28    23   ar
@<TRIPOS>MOLECULE
*****
 33 37 0 0 0
SMALL
GASTEIGER

@<TRIPOS>ATOM
      1 C         141.9356  142.3491  167.1414 C.ar    1  UNL1        0.0004
      2 C         143.4072  142.5387  166.9215 C.ar    1  UNL1        0.0031
      3 C         143.9222  142.8924  165.5578 C.ar    1  UNL1        0.0370
      4 C         142.9656  143.0564  164.4141 C.ar    1  UNL1        0.1415
      5 C         141.4940  142.8667  164.6341 C.ar    1  UNL1        0.0699
      6 C         140.9790  142.5131  165.9977 C.ar    1  UNL1        0.0061
      7 C         140.3772  142.9821  163.6395 C.ar    1  UNL1        0.1718
      8 N         138.9344  142.7665  163.9883 N.ar    1  UNL1       -0.1258
      9 N         138.1216  142.9667  162.7435 N.ar    1  UNL1       -0.0913
     10 C         139.0621  143.3062  161.6255 C.ar    1  UNL1        0.3248
     11 N         140.4562  143.3157  162.1791 N.ar    1  UNL1       -0.2613
     12 C         141.6714  143.6163  161.3528 C.3     1  UNL1        0.1592
     13 C         143.1079  143.6575  161.7827 C.3     1  UNL1        0.2299
     14 O         143.6839  143.4083  163.1451 O.3     1  UNL1       -0.4733
     15 C         138.3385  140.1154  170.1535 C.3     1  UNL1        0.0521
     16 C         139.6220  140.8786  170.0112 C.ar    1  UNL1        0.0594
     17 C         140.1371  141.2322  168.6475 C.ar    1  UNL1        0.0147
     18 C         141.4205  141.9954  168.5052 C.ar    1  UNL1        0.0027
     19 C         142.1890  142.4049  169.7266 C.ar    1  UNL1        0.0207
     20 C         141.6739  142.0513  171.0902 C.ar    1  UNL1        0.0984
     21 N         140.3904  141.2881  171.2326 N.ar    1  UNL1       -0.2481
     22 O         138.6762  143.5869  160.2034 O.3     1  UNL1       -0.4223
     23 C         138.6611  142.4748  159.1968 C.ar    1  UNL1        0.1517
     24 C         138.4202  142.7781  157.7477 C.ar    1  UNL1        0.0378
     25 C         138.4051  141.6660  156.7412 C.ar    1  UNL1        0.0062
     26 C         138.6307  140.2507  157.1839 C.ar    1  UNL1        0.0374
     27 C         138.8715  139.9474  158.6330 C.ar    1  UNL1        0.1499
     28 C         138.8867  141.0596  159.6395 C.ar    1  UNL1        0.0747
     29 O         139.0972  138.5321  159.0757 O.3     1  UNL1       -0.4044
     30 C         139.7654  138.2548  160.3897 C.3     1  UNL1        0.5753
     31 F         140.4336  137.9774  161.7037 F       1  UNL1       -0.1328
     32 F         141.1069  138.4581  159.7504 F       1  UNL1       -0.1328
     33 F         138.4238  138.0515  161.0290 F       1  UNL1       -0.1328
@<TRIPOS>BOND
     1    15    16    1
     2    16    17   ar
     3    17    18   ar
     4    18     1    1
     5     1     2   ar
     6     2     3   ar
     7     3     4   ar
     8     4     5   ar
     9     5     6   ar
    10     5     7    1
    11     7     8   ar
    12     8     9   ar
    13     9    10   ar
    14    10    22    1
    15    22    23    1
    16    23    24   ar
    17    24    25   ar
    18    25    26   ar
    19    26    27   ar
    20    27    29    1
    21    29    30    1
    22    30    31    1
    23    30    32    1
    24    30    33    1
    25    27    28   ar
    26    10    11   ar
    27    11    12    1
    28    12    13    1
    29    13    14    1
    30    18    19   ar
    31    19    20   ar
    32    20    21   ar
    33    21    16   ar
    34     6     1   ar
    35    11     7   ar
    36    14     4    1
    37    28    23   ar
@<TRIPOS>MOLECULE
*****
 33 37 0 0 0
SMALL
GASTEIGER

@<TRIPOS>ATOM
      1 C         141.3741  140.0713  167.3710 C.ar    1  UNL1        0.0004
      2 C         142.5939  139.2116  167.2203 C.ar    1  UNL1        0.0031
      3 C         142.8845  138.5455  165.9081 C.ar    1  UNL1        0.0370
      4 C         141.9552  138.7391  164.7467 C.ar    1  UNL1        0.1415
      5 C         140.7354  139.5989  164.8974 C.ar    1  UNL1        0.0699
      6 C         140.4448  140.2650  166.2096 C.ar    1  UNL1        0.0061
      7 C         139.6865  139.9217  163.8749 C.ar    1  UNL1        0.1718
      8 N         138.5046  140.8025  164.1529 N.ar    1  UNL1       -0.1258
      9 N         137.6861  140.8895  162.8989 N.ar    1  UNL1       -0.0913
     10 C         138.3622  140.0626  161.8459 C.ar    1  UNL1        0.3248
     11 N         139.5985  139.4644  162.4489 N.ar    1  UNL1       -0.2613
     12 C         140.5375  138.5714  161.6935 C.3     1  UNL1        0.1592
     13 C         141.7965  137.9151  162.1773 C.3     1  UNL1        0.2299
     14 O         142.4275  137.9898  163.5361 O.3     1  UNL1       -0.4733
     15 C         140.3131  144.3631  170.1015 C.3     1  UNL1        0.0521
     16 C         140.5530  142.8834  170.0485 C.ar    1  UNL1        0.0594
     17 C         140.8436  142.2172  168.7362 C.ar    1  UNL1        0.0147
     18 C         141.0835  140.7375  168.6832 C.ar    1  UNL1        0.0027
     19 C         141.0328  139.9239  169.9424 C.ar    1  UNL1        0.0207
     20 C         140.7422  140.5900  171.2545 C.ar    1  UNL1        0.0984
     21 N         140.5023  142.0698  171.3076 N.ar    1  UNL1       -0.2481
     22 O         137.8855  139.8680  160.4370 O.3     1  UNL1       -0.4223
     23 C         138.2578  140.8602  159.3754 C.ar    1  UNL1        0.1517
     24 C         138.1103  140.4995  157.9269 C.ar    1  UNL1        0.0378
     25 C         138.4826  141.4918  156.8653 C.ar    1  UNL1        0.0062
     26 C         139.0024  142.8445  157.2523 C.ar    1  UNL1        0.0374
     27 C         139.1500  143.2051  158.7008 C.ar    1  UNL1        0.1499
     28 C         138.7776  142.2129  159.7623 C.ar    1  UNL1        0.0747
     29 O         139.6698  144.5579  159.0877 O.3     1  UNL1       -0.4044
     30 C         140.9640  145.0558  158.5157 C.3     1  UNL1        0.5753
     31 F         142.2581  145.5538  157.9437 F       1  UNL1       -0.1328
     32 F         141.6713  143.8552  159.0707 F       1  UNL1       -0.1328
     33 F         140.2567  146.2565  157.9607 F       1  UNL1       -0.1328
@<TRIPOS>BOND
     1    15    16    1
     2    16    17   ar
     3    17    18   ar
     4    18     1    1
     5     1     2   ar
     6     2     3   ar
     7     3     4   ar
     8     4     5   ar
     9     5     6   ar
    10     5     7    1
    11     7     8   ar
    12     8     9   ar
    13     9    10   ar
    14    10    22    1
    15    22    23    1
    16    23    24   ar
    17    24    25   ar
    18    25    26   ar
    19    26    27   ar
    20    27    29    1
    21    29    30    1
    22    30    31    1
    23    30    32    1
    24    30    33    1
    25    27    28   ar
    26    10    11   ar
    27    11    12    1
    28    12    13    1
    29    13    14    1
    30    18    19   ar
    31    19    20   ar
    32    20    21   ar
    33    21    16   ar
    34     6     1   ar
    35    11     7   ar
    36    14     4    1
    37    28    23   ar
@<TRIPOS>MOLECULE
*****
 33 37 0 0 0
SMALL
GASTEIGER

@<TRIPOS>ATOM
      1 C         142.1455  140.5219  167.1645 C.ar    1  UNL1        0.0004
      2 C         142.8202  139.1856  167.0703 C.ar    1  UNL1        0.0031
      3 C         143.4640  138.7596  165.7842 C.ar    1  UNL1        0.0370
      4 C         143.4329  139.6698  164.5924 C.ar    1  UNL1        0.1415
      5 C         142.7582  141.0061  164.6866 C.ar    1  UNL1        0.0699
      6 C         142.1144  141.4322  165.9727 C.ar    1  UNL1        0.0061
      7 C         142.6140  142.0579  163.6270 C.ar    1  UNL1        0.1718
      8 N         141.9103  143.3638  163.8490 N.ar    1  UNL1       -0.1258
      9 N         141.9704  144.1461  162.5706 N.ar    1  UNL1       -0.0913
     10 C         142.7113  143.3237  161.5584 C.ar    1  UNL1        0.3248
     11 N         143.1091  142.0331  162.2112 N.ar    1  UNL1       -0.2613
     12 C         143.8705  140.9504  161.5055 C.3     1  UNL1        0.1592
     13 C         144.3250  139.6251  162.0413 C.3     1  UNL1        0.2299
     14 O         144.1302  139.0552  163.4151 O.3     1  UNL1       -0.4733
     15 C         140.2120  144.2660  170.2049 C.3     1  UNL1        0.0521
     16 C         140.5349  142.8201  169.9708 C.ar    1  UNL1        0.0594
     17 C         141.1787  142.3940  168.6847 C.ar    1  UNL1        0.0147
     18 C         141.5017  140.9480  168.4507 C.ar    1  UNL1        0.0027
     19 C         141.1809  139.9281  169.5027 C.ar    1  UNL1        0.0207
     20 C         140.5371  140.3541  170.7888 C.ar    1  UNL1        0.0984
     21 N         140.2141  141.8001  171.0229 N.ar    1  UNL1       -0.2481
     22 O         143.0031  143.7219  160.1419 O.3     1  UNL1       -0.4223
     23 C         141.8838  143.8416  159.1506 C.ar    1  UNL1        0.1517
     24 C         141.1823  142.6101  158.6593 C.ar    1  UNL1        0.0378
     25 C         140.0629  142.7298  157.6679 C.ar    1  UNL1        0.0062
     26 C         139.6451  144.0808  157.1680 C.ar    1  UNL1        0.0374
     27 C         140.3466  145.3123  157.6593 C.ar    1  UNL1        0.1499
     28 C         141.4660  145.1926  158.6507 C.ar    1  UNL1        0.0747
     29 O         139.9288  146.6634  157.1594 O.3     1  UNL1       -0.4044
     30 C         139.8215  146.9173  155.6848 C.3     1  UNL1        0.5753
     31 F         139.7143  147.1711  154.2104 F       1  UNL1       -0.1328
     32 F         138.3890  147.3261  155.8594 F       1  UNL1       -0.1328
     33 F         141.2541  146.5084  155.5103 F       1  UNL1       -0.1328
@<TRIPOS>BOND
     1    15    16    1
     2    16    17   ar
     3    17    18   ar
     4    18     1    1
     5     1     2   ar
     6     2     3   ar
     7     3     4   ar
     8     4     5   ar
     9     5     6   ar
    10     5     7    1
    11     7     8   ar
    12     8     9   ar
    13     9    10   ar
    14    10    22    1
    15    22    23    1
    16    23    24   ar
    17    24    25   ar
    18    25    26   ar
    19    26    27   ar
    20    27    29    1
    21    29    30    1
    22    30    31    1
    23    30    32    1
    24    30    33    1
    25    27    28   ar
    26    10    11   ar
    27    11    12    1
    28    12    13    1
    29    13    14    1
    30    18    19   ar
    31    19    20   ar
    32    20    21   ar
    33    21    16   ar
    34     6     1   ar
    35    11     7   ar
    36    14     4    1
    37    28    23   ar
@<TRIPOS>MOLECULE
*****
 33 37 0 0 0
SMALL
GASTEIGER

@<TRIPOS>ATOM
      1 C         140.7493  144.5365  158.0134 C.ar    1  UNL1        0.0004
      2 C         142.0879  143.9696  157.6438 C.ar    1  UNL1        0.0031
      3 C         142.9889  143.4185  158.7088 C.ar    1  UNL1        0.0370
      4 C         142.5514  143.4343  160.1435 C.ar    1  UNL1        0.1415
      5 C         141.2127  144.0011  160.5131 C.ar    1  UNL1        0.0699
      6 C         140.3117  144.5522  159.4481 C.ar    1  UNL1        0.0061
      7 C         140.5873  144.1129  161.8719 C.ar    1  UNL1        0.1718
      8 N         139.2300  144.7052  162.1107 N.ar    1  UNL1       -0.1258
      9 N         138.9500  144.6438  163.5831 N.ar    1  UNL1       -0.0913
     10 C         140.1342  144.0135  164.2542 C.ar    1  UNL1        0.3248
     11 N         141.1461  143.6854  163.1967 N.ar    1  UNL1       -0.2613
     12 C         142.4683  143.0405  163.4898 C.3     1  UNL1        0.1592
     13 C         143.5583  142.6639  162.5307 C.3     1  UNL1        0.2299
     14 O         143.5952  142.8391  161.0414 O.3     1  UNL1       -0.4733
     15 C         138.9284  148.5834  155.3102 C.3     1  UNL1        0.0521
     16 C         138.9377  147.1111  155.5968 C.ar    1  UNL1        0.0594
     17 C         139.8388  146.5600  156.6618 C.ar    1  UNL1        0.0147
     18 C         139.8481  145.0876  156.9484 C.ar    1  UNL1        0.0027
     19 C         138.9563  144.1664  156.1699 C.ar    1  UNL1        0.0207
     20 C         138.0552  144.7175  155.1049 C.ar    1  UNL1        0.0984
     21 N         138.0459  146.1899  154.8183 N.ar    1  UNL1       -0.2481
     22 O         140.2806  143.7565  165.7248 O.3     1  UNL1       -0.4223
     23 C         139.9967  142.3922  166.2797 C.ar    1  UNL1        0.1517
     24 C         140.5044  142.0152  167.6399 C.ar    1  UNL1        0.0378
     25 C         140.2203  140.6508  168.1948 C.ar    1  UNL1        0.0062
     26 C         139.4287  139.6635  167.3895 C.ar    1  UNL1        0.0374
     27 C         138.9210  140.0405  166.0293 C.ar    1  UNL1        0.1499
     28 C         139.2050  141.4049  165.4744 C.ar    1  UNL1        0.0747
     29 O         138.1293  139.0533  165.2240 O.3     1  UNL1       -0.4044
     30 C         138.8102  138.2208  164.1783 C.3     1  UNL1        0.5753
     31 F         139.4910  137.3884  163.1325 F       1  UNL1       -0.1328
     32 F         139.2712  137.2655  165.2388 F       1  UNL1       -0.1328
     33 F         138.3491  139.1762  163.1177 F       1  UNL1       -0.1328
@<TRIPOS>BOND
     1    15    16    1
     2    16    17   ar
     3    17    18   ar
     4    18     1    1
     5     1     2   ar
     6     2     3   ar
     7     3     4   ar
     8     4     5   ar
     9     5     6   ar
    10     5     7    1
    11     7     8   ar
    12     8     9   ar
    13     9    10   ar
    14    10    22    1
    15    22    23    1
    16    23    24   ar
    17    24    25   ar
    18    25    26   ar
    19    26    27   ar
    20    27    29    1
    21    29    30    1
    22    30    31    1
    23    30    32    1
    24    30    33    1
    25    27    28   ar
    26    10    11   ar
    27    11    12    1
    28    12    13    1
    29    13    14    1
    30    18    19   ar
    31    19    20   ar
    32    20    21   ar
    33    21    16   ar
    34     6     1   ar
    35    11     7   ar
    36    14     4    1
    37    28    23   ar
