@<TRIPOS>MOLECULE
*****
 24 26 0 0 0
SMALL
GASTEIGER

@<TRIPOS>ATOM
      1 C         139.0523  139.4290  166.8028 C.3     1  UNL1        0.1301
      2 C         137.7794  138.6824  167.0717 C.3     1  UNL1        0.0388
      3 C         138.6845  139.5339  165.3524 C.ar    1  UNL1        0.0059
      4 C         138.9528  138.3853  164.4257 C.ar    1  UNL1       -0.0008
      5 C         138.5850  138.4901  162.9753 C.ar    1  UNL1        0.0112
      6 C         137.9489  139.7435  162.4516 C.ar    1  UNL1        0.0577
      7 CL        137.5811  139.8484  161.0011 Cl      1  UNL1       -0.0822
      8 C         137.6805  140.8921  163.3783 C.ar    1  UNL1        0.0112
      9 C         138.0484  140.7873  164.8287 C.ar    1  UNL1       -0.0008
     10 C         140.3253  140.1756  166.5339 C.ar    1  UNL1        0.0059
     11 C         141.6089  139.4241  166.3404 C.ar    1  UNL1       -0.0017
     12 C         142.8818  140.1707  166.0715 C.ar    1  UNL1       -0.0002
     13 C         142.8710  141.6688  165.9962 C.ar    1  UNL1       -0.0000
     14 C         141.5874  142.4203  166.1897 C.ar    1  UNL1       -0.0002
     15 C         140.3145  141.6737  166.4586 C.ar    1  UNL1       -0.0017
     16 O         139.4201  139.3241  168.2532 O.3     1  UNL1       -0.3504
     17 C         138.7117  140.1696  169.2697 C.3     1  UNL1        0.1442
     18 C         139.4926  140.8504  170.3545 C.3     1  UNL1        0.0480
     19 C         140.4684  143.9224  169.8444 C.3     1  UNL1        0.0896
     20 N         141.3499  142.7088  169.8628 N.3     1  UNL1       -0.2727
     21 C         142.8346  142.6942  169.6500 C.3     1  UNL1        0.0721
     22 C         143.3037  141.2732  169.7529 C.3     1  UNL1        0.0187
     23 C         142.1089  140.4096  170.0293 C.3     1  UNL1        0.0175
     24 C         140.9013  141.2968  170.0972 C.3     1  UNL1        0.0601
@<TRIPOS>BOND
     1    19    20    1
     2    20    21    1
     3    21    22    1
     4    22    23    1
     5    23    24    1
     6    24    18    1
     7    18    17    1
     8    17    16    1
     9    16     1    1
    10     1     2    1
    11     1    10    1
    12    10    11   ar
    13    11    12   ar
    14    12    13   ar
    15    13    14   ar
    16    14    15   ar
    17     1     3    1
    18     3     4   ar
    19     4     5   ar
    20     5     6   ar
    21     6     7    1
    22     6     8   ar
    23     8     9   ar
    24    24    20    1
    25    15    10   ar
    26     9     3   ar
@<TRIPOS>MOLECULE
*****
 24 26 0 0 0
SMALL
GASTEIGER

@<TRIPOS>ATOM
      1 C         141.5738  142.1483  165.5786 C.3     1  UNL1        0.1301
      2 C         142.8426  141.5856  166.1473 C.3     1  UNL1        0.0388
      3 C         140.8154  141.6416  166.7693 C.ar    1  UNL1        0.0059
      4 C         140.8761  142.3866  168.0699 C.ar    1  UNL1       -0.0008
      5 C         140.1177  141.8798  169.2606 C.ar    1  UNL1        0.0112
      6 C         139.2985  140.6281  169.1509 C.ar    1  UNL1        0.0577
      7 CL        138.5400  140.1214  170.3418 Cl      1  UNL1       -0.0822
      8 C         139.2377  139.8831  167.8505 C.ar    1  UNL1        0.0112
      9 C         139.9961  140.3898  166.6596 C.ar    1  UNL1       -0.0008
     10 C         140.3049  142.7110  165.0099 C.ar    1  UNL1        0.0059
     11 C         139.6505  143.8931  165.6613 C.ar    1  UNL1       -0.0017
     12 C         138.3817  144.4557  165.0927 C.ar    1  UNL1       -0.0002
     13 C         137.7672  143.8363  163.8725 C.ar    1  UNL1       -0.0000
     14 C         138.4216  142.6542  163.2210 C.ar    1  UNL1       -0.0002
     15 C         139.6905  142.0916  163.7897 C.ar    1  UNL1       -0.0017
     16 O         142.3322  142.6551  164.3878 O.3     1  UNL1       -0.3504
     17 C         143.2490  143.8339  164.5286 C.3     1  UNL1        0.1442
     18 C         143.0558  145.0421  163.6609 C.3     1  UNL1        0.0480
     19 C         143.1260  143.3086  160.8970 C.3     1  UNL1        0.0896
     20 N         142.0325  144.2422  161.3246 N.3     1  UNL1       -0.2727
     21 C         140.7795  144.5428  160.5570 C.3     1  UNL1        0.0721
     22 C         139.9728  145.5255  161.3530 C.3     1  UNL1        0.0187
     23 C         140.7273  145.8321  162.6126 C.3     1  UNL1        0.0175
     24 C         142.0004  145.0390  162.5951 C.3     1  UNL1        0.0601
@<TRIPOS>BOND
     1    19    20    1
     2    20    21    1
     3    21    22    1
     4    22    23    1
     5    23    24    1
     6    24    18    1
     7    18    17    1
     8    17    16    1
     9    16     1    1
    10     1     2    1
    11     1    10    1
    12    10    11   ar
    13    11    12   ar
    14    12    13   ar
    15    13    14   ar
    16    14    15   ar
    17     1     3    1
    18     3     4   ar
    19     4     5   ar
    20     5     6   ar
    21     6     7    1
    22     6     8   ar
    23     8     9   ar
    24    24    20    1
    25    15    10   ar
    26     9     3   ar
@<TRIPOS>MOLECULE
*****
 24 26 0 0 0
SMALL
GASTEIGER

@<TRIPOS>ATOM
      1 C         142.3838  140.0023  165.2454 C.3     1  UNL1        0.1301
      2 C         143.0864  138.8192  165.8426 C.3     1  UNL1        0.0388
      3 C         141.4633  140.0528  166.4286 C.ar    1  UNL1        0.0059
      4 C         141.9838  140.4900  167.7658 C.ar    1  UNL1       -0.0008
      5 C         141.0632  140.5406  168.9489 C.ar    1  UNL1        0.0112
      6 C         139.6221  140.1540  168.7950 C.ar    1  UNL1        0.0577
      7 CL        138.7015  140.2045  169.9783 Cl      1  UNL1       -0.0822
      8 C         139.1015  139.7168  167.4579 C.ar    1  UNL1        0.0112
      9 C         140.0221  139.6662  166.2747 C.ar    1  UNL1       -0.0008
     10 C         141.6812  141.1854  164.6482 C.ar    1  UNL1        0.0059
     11 C         141.2702  142.3333  165.5220 C.ar    1  UNL1       -0.0017
     12 C         140.5676  143.5163  164.9248 C.ar    1  UNL1       -0.0002
     13 C         140.2760  143.5515  163.4538 C.ar    1  UNL1       -0.0000
     14 C         140.6870  142.4037  162.5801 C.ar    1  UNL1       -0.0002
     15 C         141.3896  141.2206  163.1773 C.ar    1  UNL1       -0.0017
     16 O         143.3044  139.9517  164.0623 O.3     1  UNL1       -0.3504
     17 C         144.7894  139.9067  164.2688 C.3     1  UNL1        0.1442
     18 C         145.6178  141.1337  164.0269 C.3     1  UNL1        0.0480
     19 C         144.6368  142.4652  161.2138 C.3     1  UNL1        0.0896
     20 N         144.5014  143.0806  162.5750 N.3     1  UNL1       -0.2727
     21 C         143.8914  144.4160  162.8822 C.3     1  UNL1        0.0721
     22 C         143.9653  144.6293  164.3651 C.3     1  UNL1        0.0187
     23 C         144.6210  143.4258  164.9744 C.3     1  UNL1        0.0175
     24 C         144.9524  142.4685  163.8681 C.3     1  UNL1        0.0601
@<TRIPOS>BOND
     1    19    20    1
     2    20    21    1
     3    21    22    1
     4    22    23    1
     5    23    24    1
     6    24    18    1
     7    18    17    1
     8    17    16    1
     9    16     1    1
    10     1     2    1
    11     1    10    1
    12    10    11   ar
    13    11    12   ar
    14    12    13   ar
    15    13    14   ar
    16    14    15   ar
    17     1     3    1
    18     3     4   ar
    19     4     5   ar
    20     5     6   ar
    21     6     7    1
    22     6     8   ar
    23     8     9   ar
    24    24    20    1
    25    15    10   ar
    26     9     3   ar
@<TRIPOS>MOLECULE
*****
 24 26 0 0 0
SMALL
GASTEIGER

@<TRIPOS>ATOM
      1 C         142.4568  142.1831  165.0774 C.3     1  UNL1        0.1301
      2 C         143.7374  142.8504  165.4834 C.3     1  UNL1        0.0388
      3 C         142.4958  141.3498  166.3240 C.ar    1  UNL1        0.0059
      4 C         142.2387  141.9844  167.6587 C.ar    1  UNL1       -0.0008
      5 C         142.2776  141.1512  168.9053 C.ar    1  UNL1        0.0112
      6 C         142.5736  139.6833  168.8174 C.ar    1  UNL1        0.0577
      7 CL        142.6125  138.8500  170.0641 Cl      1  UNL1       -0.0822
      8 C         142.8307  139.0487  167.4828 C.ar    1  UNL1        0.0112
      9 C         142.7918  139.8820  166.2361 C.ar    1  UNL1       -0.0008
     10 C         141.1762  141.5157  164.6714 C.ar    1  UNL1        0.0059
     11 C         141.0372  140.9334  163.2961 C.ar    1  UNL1       -0.0017
     12 C         139.7567  140.2661  162.8901 C.ar    1  UNL1       -0.0002
     13 C         138.6151  140.1811  163.8595 C.ar    1  UNL1       -0.0000
     14 C         138.7541  140.7634  165.2348 C.ar    1  UNL1       -0.0002
     15 C         140.0347  141.4307  165.6407 C.ar    1  UNL1       -0.0017
     16 O         142.4179  143.0163  163.8308 O.3     1  UNL1       -0.3504
     17 C         142.5653  144.5064  163.9197 C.3     1  UNL1        0.1442
     18 C         141.3836  145.3937  163.6618 C.3     1  UNL1        0.0480
     19 C         139.9037  143.8738  161.1820 C.3     1  UNL1        0.0896
     20 N         139.3172  144.1222  162.5401 N.3     1  UNL1       -0.2727
     21 C         137.9476  143.7156  162.9968 C.3     1  UNL1        0.0721
     22 C         137.7813  144.1629  164.4188 C.3     1  UNL1        0.0187
     23 C         139.0482  144.8459  164.8410 C.3     1  UNL1        0.0175
     24 C         139.9975  144.8208  163.6799 C.3     1  UNL1        0.0601
@<TRIPOS>BOND
     1    19    20    1
     2    20    21    1
     3    21    22    1
     4    22    23    1
     5    23    24    1
     6    24    18    1
     7    18    17    1
     8    17    16    1
     9    16     1    1
    10     1     2    1
    11     1    10    1
    12    10    11   ar
    13    11    12   ar
    14    12    13   ar
    15    13    14   ar
    16    14    15   ar
    17     1     3    1
    18     3     4   ar
    19     4     5   ar
    20     5     6   ar
    21     6     7    1
    22     6     8   ar
    23     8     9   ar
    24    24    20    1
    25    15    10   ar
    26     9     3   ar
@<TRIPOS>MOLECULE
*****
 24 26 0 0 0
SMALL
GASTEIGER

@<TRIPOS>ATOM
      1 C         142.0190  140.9214  165.3994 C.3     1  UNL1        0.1301
      2 C         143.0376  142.0176  165.5021 C.3     1  UNL1        0.0388
      3 C         141.7602  141.0238  166.8733 C.ar    1  UNL1        0.0059
      4 C         142.2129  139.9281  167.7923 C.ar    1  UNL1       -0.0008
      5 C         141.9541  140.0305  169.2662 C.ar    1  UNL1        0.0112
      6 C         141.2425  141.2287  169.8213 C.ar    1  UNL1        0.0577
      7 CL        140.9837  141.3311  171.2953 Cl      1  UNL1       -0.0822
      8 C         140.7898  142.3244  168.9024 C.ar    1  UNL1        0.0112
      9 C         141.0486  142.2220  167.4284 C.ar    1  UNL1       -0.0008
     10 C         141.0003  139.8251  165.2968 C.ar    1  UNL1        0.0059
     11 C         139.5724  140.0906  165.6719 C.ar    1  UNL1       -0.0017
     12 C         138.5538  138.9943  165.5692 C.ar    1  UNL1       -0.0002
     13 C         138.9630  137.6326  165.0914 C.ar    1  UNL1       -0.0000
     14 C         140.3908  137.3671  164.7163 C.ar    1  UNL1       -0.0002
     15 C         141.4095  138.4634  164.8190 C.ar    1  UNL1       -0.0017
     16 O         142.2778  140.8190  163.9255 O.3     1  UNL1       -0.3504
     17 C         141.9744  141.9820  163.0281 C.3     1  UNL1        0.1442
     18 C         140.5581  142.2699  162.6264 C.3     1  UNL1        0.0480
     19 C         137.3617  141.8103  163.0966 C.3     1  UNL1        0.0896
     20 N         138.2044  142.8702  163.7421 N.3     1  UNL1       -0.2727
     21 C         137.7258  143.9048  164.7169 C.3     1  UNL1        0.0721
     22 C         138.8993  144.7555  165.1033 C.3     1  UNL1        0.0187
     23 C         140.1030  144.2466  164.3673 C.3     1  UNL1        0.0175
     24 C         139.6736  143.0814  163.5259 C.3     1  UNL1        0.0601
@<TRIPOS>BOND
     1    19    20    1
     2    20    21    1
     3    21    22    1
     4    22    23    1
     5    23    24    1
     6    24    18    1
     7    18    17    1
     8    17    16    1
     9    16     1    1
    10     1     2    1
    11     1    10    1
    12    10    11   ar
    13    11    12   ar
    14    12    13   ar
    15    13    14   ar
    16    14    15   ar
    17     1     3    1
    18     3     4   ar
    19     4     5   ar
    20     5     6   ar
    21     6     7    1
    22     6     8   ar
    23     8     9   ar
    24    24    20    1
    25    15    10   ar
    26     9     3   ar
@<TRIPOS>MOLECULE
*****
 24 26 0 0 0
SMALL
GASTEIGER

@<TRIPOS>ATOM
      1 C         141.3330  142.1754  165.4043 C.3     1  UNL1        0.1301
      2 C         140.2581  143.2009  165.6111 C.3     1  UNL1        0.0388
      3 C         141.5110  142.0627  166.8894 C.ar    1  UNL1        0.0059
      4 C         140.3564  141.6517  167.7542 C.ar    1  UNL1       -0.0008
      5 C         140.5344  141.5389  169.2393 C.ar    1  UNL1        0.0112
      6 C         141.8672  141.8372  169.8597 C.ar    1  UNL1        0.0577
      7 CL        142.0452  141.7245  171.3449 Cl      1  UNL1       -0.0822
      8 C         143.0218  142.2482  168.9949 C.ar    1  UNL1        0.0112
      9 C         142.8438  142.3609  167.5098 C.ar    1  UNL1       -0.0008
     10 C         142.4079  141.1498  165.1976 C.ar    1  UNL1        0.0059
     11 C         143.6906  141.5335  164.5214 C.ar    1  UNL1       -0.0017
     12 C         144.7655  140.5079  164.3147 C.ar    1  UNL1       -0.0002
     13 C         144.5576  139.0986  164.7843 C.ar    1  UNL1       -0.0000
     14 C         143.2749  138.7148  165.4605 C.ar    1  UNL1       -0.0002
     15 C         142.2001  139.7404  165.6672 C.ar    1  UNL1       -0.0017
     16 O         141.1549  142.2881  163.9192 O.3     1  UNL1       -0.3504
     17 C         139.7932  142.1220  163.3124 C.3     1  UNL1        0.1442
     18 C         139.3034  140.7563  162.9314 C.3     1  UNL1        0.0480
     19 C         140.1326  137.6007  162.8722 C.3     1  UNL1        0.0896
     20 N         139.3801  138.2941  163.9690 N.3     1  UNL1       -0.2727
     21 C         138.8767  137.6589  165.2311 C.3     1  UNL1        0.0721
     22 C         138.1844  138.7168  166.0383 C.3     1  UNL1        0.0187
     23 C         138.2600  140.0058  165.2751 C.3     1  UNL1        0.0175
     24 C         138.9990  139.7446  163.9962 C.3     1  UNL1        0.0601
@<TRIPOS>BOND
     1    19    20    1
     2    20    21    1
     3    21    22    1
     4    22    23    1
     5    23    24    1
     6    24    18    1
     7    18    17    1
     8    17    16    1
     9    16     1    1
    10     1     2    1
    11     1    10    1
    12    10    11   ar
    13    11    12   ar
    14    12    13   ar
    15    13    14   ar
    16    14    15   ar
    17     1     3    1
    18     3     4   ar
    19     4     5   ar
    20     5     6   ar
    21     6     7    1
    22     6     8   ar
    23     8     9   ar
    24    24    20    1
    25    15    10   ar
    26     9     3   ar
@<TRIPOS>MOLECULE
*****
 24 26 0 0 0
SMALL
GASTEIGER

@<TRIPOS>ATOM
      1 C         141.6696  140.7005  165.7749 C.3     1  UNL1        0.1301
      2 C         142.7818  141.7053  165.8323 C.3     1  UNL1        0.0388
      3 C         140.7851  141.7172  165.1163 C.ar    1  UNL1        0.0059
      4 C         140.3997  141.5553  163.6757 C.ar    1  UNL1       -0.0008
      5 C         139.5151  142.5721  163.0171 C.ar    1  UNL1        0.0112
      6 C         139.0159  143.7508  163.7991 C.ar    1  UNL1        0.0577
      7 CL        138.1313  144.7675  163.1405 Cl      1  UNL1       -0.0822
      8 C         139.4012  143.9127  165.2397 C.ar    1  UNL1        0.0112
      9 C         140.2859  142.8959  165.8983 C.ar    1  UNL1       -0.0008
     10 C         140.5574  139.6957  165.7174 C.ar    1  UNL1        0.0059
     11 C         139.2766  139.9516  166.4549 C.ar    1  UNL1       -0.0017
     12 C         138.1644  138.9467  166.3974 C.ar    1  UNL1       -0.0002
     13 C         138.3330  137.6860  165.6023 C.ar    1  UNL1       -0.0000
     14 C         139.6138  137.4301  164.8647 C.ar    1  UNL1       -0.0002
     15 C         140.7260  138.4350  164.9223 C.ar    1  UNL1       -0.0017
     16 O         142.5542  139.6838  166.4334 O.3     1  UNL1       -0.3504
     17 C         142.8967  139.8172  167.8877 C.3     1  UNL1        0.1442
     18 C         141.8038  139.8699  168.9138 C.3     1  UNL1        0.0480
     19 C         138.8333  140.4272  170.1446 C.3     1  UNL1        0.0896
     20 N         139.9122  141.4506  169.9474 N.3     1  UNL1       -0.2727
     21 C         139.8150  142.9096  170.2812 C.3     1  UNL1        0.0721
     22 C         141.1204  143.5553  169.9219 C.3     1  UNL1        0.0187
     23 C         142.0242  142.4952  169.3659 C.3     1  UNL1        0.0175
     24 C         141.2775  141.1944  169.3817 C.3     1  UNL1        0.0601
@<TRIPOS>BOND
     1    19    20    1
     2    20    21    1
     3    21    22    1
     4    22    23    1
     5    23    24    1
     6    24    18    1
     7    18    17    1
     8    17    16    1
     9    16     1    1
    10     1     2    1
    11     1    10    1
    12    10    11   ar
    13    11    12   ar
    14    12    13   ar
    15    13    14   ar
    16    14    15   ar
    17     1     3    1
    18     3     4   ar
    19     4     5   ar
    20     5     6   ar
    21     6     7    1
    22     6     8   ar
    23     8     9   ar
    24    24    20    1
    25    15    10   ar
    26     9     3   ar
@<TRIPOS>MOLECULE
*****
 24 26 0 0 0
SMALL
GASTEIGER

@<TRIPOS>ATOM
      1 C         142.0237  139.3625  164.9610 C.3     1  UNL1        0.1301
      2 C         142.2957  139.1333  163.5038 C.3     1  UNL1        0.0388
      3 C         142.4635  140.7894  164.8187 C.ar    1  UNL1        0.0059
      4 C         143.9134  141.1455  164.9649 C.ar    1  UNL1       -0.0008
      5 C         144.3532  142.5725  164.8226 C.ar    1  UNL1        0.0112
      6 C         143.3433  143.6434  164.5341 C.ar    1  UNL1        0.0577
      7 CL        143.7833  145.0704  164.3918 Cl      1  UNL1       -0.0822
      8 C         141.8936  143.2874  164.3879 C.ar    1  UNL1        0.0112
      9 C         141.4536  141.8604  164.5302 C.ar    1  UNL1       -0.0008
     10 C         141.7516  139.5917  166.4183 C.ar    1  UNL1        0.0059
     11 C         140.4270  140.1427  166.8563 C.ar    1  UNL1       -0.0017
     12 C         140.1550  140.3719  168.3135 C.ar    1  UNL1       -0.0002
     13 C         141.2076  140.0502  169.3326 C.ar    1  UNL1       -0.0000
     14 C         142.5322  139.4992  168.8946 C.ar    1  UNL1       -0.0002
     15 C         142.8042  139.2700  167.4374 C.ar    1  UNL1       -0.0017
     16 O         141.5838  137.9356  165.1033 O.3     1  UNL1       -0.3504
     17 C         140.5285  137.3816  164.1925 C.3     1  UNL1        0.1442
     18 C         139.0940  137.7791  164.3777 C.3     1  UNL1        0.0480
     19 C         138.8016  138.1632  161.1503 C.3     1  UNL1        0.0896
     20 N         138.4215  139.1693  162.1959 N.3     1  UNL1       -0.2727
     21 C         137.8402  140.5285  161.9417 C.3     1  UNL1        0.0721
     22 C         137.6154  141.1919  163.2681 C.3     1  UNL1        0.0187
     23 C         138.0577  140.2428  164.3420 C.3     1  UNL1        0.0175
     24 C         138.5559  138.9927  163.6794 C.3     1  UNL1        0.0601
@<TRIPOS>BOND
     1    19    20    1
     2    20    21    1
     3    21    22    1
     4    22    23    1
     5    23    24    1
     6    24    18    1
     7    18    17    1
     8    17    16    1
     9    16     1    1
    10     1     2    1
    11     1    10    1
    12    10    11   ar
    13    11    12   ar
    14    12    13   ar
    15    13    14   ar
    16    14    15   ar
    17     1     3    1
    18     3     4   ar
    19     4     5   ar
    20     5     6   ar
    21     6     7    1
    22     6     8   ar
    23     8     9   ar
    24    24    20    1
    25    15    10   ar
    26     9     3   ar
@<TRIPOS>MOLECULE
*****
 24 26 0 0 0
SMALL
GASTEIGER

@<TRIPOS>ATOM
      1 C         140.3836  142.8966  165.1351 C.3     1  UNL1        0.1301
      2 C         139.2577  143.8145  165.5090 C.3     1  UNL1        0.0388
      3 C         140.2216  142.1681  166.4362 C.ar    1  UNL1        0.0059
      4 C         140.6536  142.8168  167.7179 C.ar    1  UNL1       -0.0008
      5 C         140.4916  142.0882  169.0190 C.ar    1  UNL1        0.0112
      6 C         139.8976  140.7110  169.0385 C.ar    1  UNL1        0.0577
      7 CL        139.7356  139.9824  170.3397 Cl      1  UNL1       -0.0822
      8 C         139.4656  140.0623  167.7569 C.ar    1  UNL1        0.0112
      9 C         139.6276  140.7908  166.4557 C.ar    1  UNL1       -0.0008
     10 C         141.5095  141.9786  164.7613 C.ar    1  UNL1        0.0059
     11 C         142.7373  141.9092  165.6202 C.ar    1  UNL1       -0.0017
     12 C         143.8631  140.9913  165.2464 C.ar    1  UNL1       -0.0002
     13 C         143.7612  140.1427  164.0137 C.ar    1  UNL1       -0.0000
     14 C         142.5334  140.2120  163.1549 C.ar    1  UNL1       -0.0002
     15 C         141.4076  141.1300  163.5287 C.ar    1  UNL1       -0.0017
     16 O         140.5456  143.6252  163.8340 O.3     1  UNL1       -0.3504
     17 C         141.1210  145.0103  163.8166 C.3     1  UNL1        0.1442
     18 C         142.5321  145.2306  163.3580 C.3     1  UNL1        0.0480
     19 C         141.3616  144.4919  160.4027 C.3     1  UNL1        0.0896
     20 N         142.6184  143.9477  161.0145 N.3     1  UNL1       -0.2727
     21 C         143.5578  142.9685  160.3754 C.3     1  UNL1        0.0721
     22 C         144.6765  142.7029  161.3388 C.3     1  UNL1        0.0187
     23 C         144.4284  143.5179  162.5733 C.3     1  UNL1        0.0175
     24 C         143.1564  144.2873  162.3729 C.3     1  UNL1        0.0601
@<TRIPOS>BOND
     1    19    20    1
     2    20    21    1
     3    21    22    1
     4    22    23    1
     5    23    24    1
     6    24    18    1
     7    18    17    1
     8    17    16    1
     9    16     1    1
    10     1     2    1
    11     1    10    1
    12    10    11   ar
    13    11    12   ar
    14    12    13   ar
    15    13    14   ar
    16    14    15   ar
    17     1     3    1
    18     3     4   ar
    19     4     5   ar
    20     5     6   ar
    21     6     7    1
    22     6     8   ar
    23     8     9   ar
    24    24    20    1
    25    15    10   ar
    26     9     3   ar
