@<TRIPOS>MOLECULE
*****
 41 45 0 0 0
SMALL
GASTEIGER

@<TRIPOS>ATOM
      1 C         142.4827  144.1753  162.8838 C.2     1  UNL1        0.2251
      2 O         143.5372  145.1536  163.3094 O.2     1  UNL1       -0.2749
      3 N         142.0518  143.0835  163.8177 N.am    1  UNL1       -0.2794
      4 C         140.9974  142.1053  163.3921 C.3     1  UNL1        0.0954
      5 C         140.5664  141.0134  164.3260 C.3     1  UNL1        0.0441
      6 C         141.1899  140.8998  165.6855 C.3     1  UNL1        0.0856
      7 C         142.2444  141.8781  166.1112 C.3     1  UNL1        0.0441
      8 C         142.6753  142.9699  165.1773 C.3     1  UNL1        0.0954
      9 C         140.6122  144.5160  158.8052 C.3     1  UNL1        0.0542
     10 C         141.7586  143.5748  159.0283 C.3     1  UNL1        0.0162
     11 C         142.3821  143.4612  160.3878 C.3     1  UNL1        0.0104
     12 C         141.8592  144.2889  161.5243 C.3     1  UNL1        0.0768
     13 C         140.7127  145.2301  161.3012 C.3     1  UNL1        0.0095
     14 C         139.6553  146.2556  161.5844 C.3     1  UNL1        0.0005
     15 C         140.9690  145.4727  162.7591 C.3     1  UNL1        0.0005
     16 C         140.0892  145.3437  159.9417 C.3     1  UNL1        0.0162
     17 N         139.9887  144.6296  157.4456 N.3     1  UNL1       -0.2962
     18 H         139.9844  143.6918  157.0445 H       1  UNL1        0.1235
     19 C         140.5936  145.5379  156.4166 C.3     1  UNL1        0.0768
     20 C         141.8256  145.1140  155.6734 C.3     1  UNL1        0.0220
     21 C         138.7123  149.5349  155.5592 C.ar    1  UNL1        0.1387
     22 C         138.4680  148.8578  156.8752 C.ar    1  UNL1        0.0366
     23 C         139.0951  147.5255  157.1610 C.ar    1  UNL1        0.0001
     24 C         139.9665  146.8703  156.1308 C.ar    1  UNL1       -0.0078
     25 C         140.2108  147.5473  154.8149 C.ar    1  UNL1        0.0001
     26 C         139.5837  148.8796  154.5290 C.ar    1  UNL1        0.0366
     27 C         138.9502  152.0772  155.0795 C.3     1  UNL1        0.2525
     28 O         138.0852  150.8672  155.2734 O.3     1  UNL1       -0.4714
     29 N         140.2371  139.7425  165.7384 N.am    1  UNL1       -0.2455
     30 C         138.9356  139.8755  166.4722 C.3     1  UNL1        0.1008
     31 C         137.9828  138.7182  166.5251 C.3     1  UNL1        0.0691
     32 C         138.3315  137.4280  165.8442 C.3     1  UNL1        0.2119
     33 O         139.6330  137.2950  165.1105 O.3     1  UNL1       -0.4345
     34 C         140.5858  138.4523  165.0576 C.2     1  UNL1        0.4050
     35 O         141.8873  138.3192  164.3238 O.2     1  UNL1       -0.2262
     36 C         141.4825  140.3843  167.0634 C.ar    1  UNL1       -0.0059
     37 C         142.6011  139.4081  167.2771 C.ar    1  UNL1       -0.0027
     38 C         142.8937  138.8926  168.6551 C.ar    1  UNL1       -0.0003
     39 C         142.0678  139.3533  169.8193 C.ar    1  UNL1       -0.0000
     40 C         140.9492  140.3296  169.6056 C.ar    1  UNL1       -0.0003
     41 C         140.6565  140.8451  168.2277 C.ar    1  UNL1       -0.0027
@<TRIPOS>BOND
     1    27    28    1
     2    28    21    1
     3    21    22   ar
     4    22    23   ar
     5    23    24   ar
     6    24    19    1
     7    19    20    1
     8    19    17    1
     9     9    17    1
    10     9    10    1
    11    10    11    1
    12    11    12    1
    13    12     1    1
    14     1     2    2
    15     1     3   am
    16     3     4    1
    17     4     5    1
    18     5     6    1
    19     6    36    1
    20    36    37   ar
    21    37    38   ar
    22    38    39   ar
    23    39    40   ar
    24    40    41   ar
    25     6    29    1
    26    29    30    1
    27    30    31    1
    28    31    32    1
    29    32    33    1
    30    33    34    1
    31    34    35    2
    32     6     7    1
    33     7     8    1
    34    12    13    1
    35    13    14    1
    36    13    15    1
    37    13    16    1
    38    24    25   ar
    39    25    26   ar
    40    26    21   ar
    41    16     9    1
    42     8     3    1
    43    41    36   ar
    44    34    29   am
    45    17    18    1
@<TRIPOS>MOLECULE
*****
 41 45 0 0 0
SMALL
GASTEIGER

@<TRIPOS>ATOM
      1 C         142.6814  144.2073  163.1890 C.2     1  UNL1        0.2251
      2 O         143.7051  145.1838  163.6876 O.2     1  UNL1       -0.2749
      3 N         142.2049  143.0994  164.0809 N.am    1  UNL1       -0.2794
      4 C         141.1812  142.1230  163.5823 C.3     1  UNL1        0.0954
      5 C         140.7047  141.0150  164.4742 C.3     1  UNL1        0.0441
      6 C         141.2518  140.8835  165.8646 C.3     1  UNL1        0.0856
      7 C         142.2755  141.8600  166.3632 C.3     1  UNL1        0.0441
      8 C         142.7520  142.9679  165.4713 C.3     1  UNL1        0.0954
      9 C         141.0399  144.6017  159.0177 C.3     1  UNL1        0.0542
     10 C         142.2221  143.7159  159.2778 C.3     1  UNL1        0.0162
     11 C         142.7693  143.5845  160.6683 C.3     1  UNL1        0.0104
     12 C         142.1342  144.3387  161.7986 C.3     1  UNL1        0.0768
     13 C         140.9519  145.2246  161.5385 C.3     1  UNL1        0.0095
     14 C         139.8236  146.1799  161.7918 C.3     1  UNL1        0.0005
     15 C         141.1072  145.4249  163.0169 C.3     1  UNL1        0.0005
     16 C         140.4047  145.3560  160.1481 C.3     1  UNL1        0.0162
     17 N         140.4927  144.7331  157.6273 N.3     1  UNL1       -0.2962
     18 H         139.9428  145.5920  157.6072 H       1  UNL1        0.1235
     19 C         139.6254  143.6503  157.0571 C.3     1  UNL1        0.0768
     20 C         138.8539  143.8944  155.7942 C.3     1  UNL1        0.0220
     21 C         139.3381  139.6693  159.1354 C.ar    1  UNL1        0.1387
     22 C         140.3055  139.8569  158.0046 C.ar    1  UNL1        0.0366
     23 C         140.4013  141.1839  157.3118 C.ar    1  UNL1        0.0001
     24 C         139.5296  142.3233  157.7499 C.ar    1  UNL1       -0.0078
     25 C         138.5622  142.1357  158.8807 C.ar    1  UNL1        0.0001
     26 C         138.4664  140.8087  159.5735 C.ar    1  UNL1        0.0366
     27 C         139.4618  138.2519  161.3093 C.3     1  UNL1        0.2525
     28 O         139.2423  138.3423  159.8282 O.3     1  UNL1       -0.4714
     29 N         140.3038  139.7212  165.8468 N.am    1  UNL1       -0.2455
     30 C         138.9682  139.8323  166.5204 C.3     1  UNL1        0.1008
     31 C         138.0202  138.6700  166.5026 C.3     1  UNL1        0.0691
     32 C         138.4078  137.3967  165.8111 C.3     1  UNL1        0.2119
     33 O         139.7434  137.2855  165.1374 O.3     1  UNL1       -0.4345
     34 C         140.6914  138.4478  165.1553 C.2     1  UNL1        0.4050
     35 O         142.0270  138.3367  164.4816 O.2     1  UNL1       -0.2262
     36 C         141.4698  140.3484  167.2488 C.ar    1  UNL1       -0.0059
     37 C         142.6152  139.4193  167.5220 C.ar    1  UNL1       -0.0027
     38 C         142.8331  138.8841  168.9063 C.ar    1  UNL1       -0.0003
     39 C         141.9057  139.2781  170.0173 C.ar    1  UNL1       -0.0000
     40 C         140.7602  140.2073  169.7442 C.ar    1  UNL1       -0.0003
     41 C         140.5422  140.7424  168.3599 C.ar    1  UNL1       -0.0027
@<TRIPOS>BOND
     1    27    28    1
     2    28    21    1
     3    21    22   ar
     4    22    23   ar
     5    23    24   ar
     6    24    19    1
     7    19    20    1
     8    19    17    1
     9     9    17    1
    10     9    10    1
    11    10    11    1
    12    11    12    1
    13    12     1    1
    14     1     2    2
    15     1     3   am
    16     3     4    1
    17     4     5    1
    18     5     6    1
    19     6    36    1
    20    36    37   ar
    21    37    38   ar
    22    38    39   ar
    23    39    40   ar
    24    40    41   ar
    25     6    29    1
    26    29    30    1
    27    30    31    1
    28    31    32    1
    29    32    33    1
    30    33    34    1
    31    34    35    2
    32     6     7    1
    33     7     8    1
    34    12    13    1
    35    13    14    1
    36    13    15    1
    37    13    16    1
    38    24    25   ar
    39    25    26   ar
    40    26    21   ar
    41    16     9    1
    42     8     3    1
    43    41    36   ar
    44    34    29   am
    45    17    18    1
@<TRIPOS>MOLECULE
*****
 41 45 0 0 0
SMALL
GASTEIGER

@<TRIPOS>ATOM
      1 C         142.9771  143.9461  162.2160 C.2     1  UNL1        0.2251
      2 O         144.1475  144.8289  162.5339 O.2     1  UNL1       -0.2749
      3 N         142.4906  142.9521  163.2285 N.am    1  UNL1       -0.2794
      4 C         141.3203  142.0693  162.9105 C.3     1  UNL1        0.0954
      5 C         140.8337  141.0752  163.9230 C.3     1  UNL1        0.0441
      6 C         141.5175  140.9640  165.2535 C.3     1  UNL1        0.0856
      7 C         142.6878  141.8468  165.5714 C.3     1  UNL1        0.0441
      8 C         143.1744  142.8408  164.5589 C.3     1  UNL1        0.0954
      9 C         140.9259  144.2799  158.2246 C.3     1  UNL1        0.0542
     10 C         140.3507  144.9734  159.4238 C.3     1  UNL1        0.0162
     11 C         141.0344  144.8621  160.7543 C.3     1  UNL1        0.0104
     12 C         142.2934  144.0574  160.8855 C.3     1  UNL1        0.0768
     13 C         142.8687  143.3638  159.6863 C.3     1  UNL1        0.0095
     14 C         143.7929  142.5312  158.8480 C.3     1  UNL1        0.0005
     15 C         143.8734  142.9634  160.7256 C.3     1  UNL1        0.0005
     16 C         142.1849  143.4751  158.3558 C.3     1  UNL1        0.0162
     17 N         140.2422  144.3912  156.8942 N.3     1  UNL1       -0.2962
     18 H         140.3113  143.4756  156.4501 H       1  UNL1        0.1235
     19 C         140.7176  145.3973  155.8884 C.3     1  UNL1        0.0768
     20 C         141.8540  145.0597  154.9694 C.3     1  UNL1        0.0220
     21 C         138.7349  149.4285  155.6281 C.ar    1  UNL1        0.1387
     22 C         139.5566  148.9214  154.4803 C.ar    1  UNL1        0.0366
     23 C         140.2176  147.5777  154.5671 C.ar    1  UNL1        0.0001
     24 C         140.0567  146.7410  155.8016 C.ar    1  UNL1       -0.0078
     25 C         139.2349  147.2482  156.9494 C.ar    1  UNL1        0.0001
     26 C         138.5740  148.5919  156.8626 C.ar    1  UNL1        0.0366
     27 C         138.7349  151.8857  154.7841 C.3     1  UNL1        0.2525
     28 O         138.0740  150.7723  155.5413 O.3     1  UNL1       -0.4714
     29 N         140.4567  139.9162  165.4173 N.am    1  UNL1       -0.2455
     30 C         139.2292  140.2119  166.2271 C.3     1  UNL1        0.1008
     31 C         138.1684  139.1641  166.3910 C.3     1  UNL1        0.0691
     32 C         138.3350  137.8207  165.7450 C.3     1  UNL1        0.2119
     33 O         139.5626  137.5250  164.9352 O.3     1  UNL1       -0.4345
     34 C         140.6234  138.5728  164.7713 C.2     1  UNL1        0.4050
     35 O         141.8509  138.2770  163.9615 O.2     1  UNL1       -0.2262
     36 C         141.8328  140.4888  166.6408 C.ar    1  UNL1       -0.0059
     37 C         141.2663  141.2103  167.8276 C.ar    1  UNL1       -0.0027
     38 C         141.5817  140.7351  169.2150 C.ar    1  UNL1       -0.0003
     39 C         142.4635  139.5385  169.4156 C.ar    1  UNL1       -0.0000
     40 C         143.0300  138.8170  168.2288 C.ar    1  UNL1       -0.0003
     41 C         142.7147  139.2921  166.8414 C.ar    1  UNL1       -0.0027
@<TRIPOS>BOND
     1    27    28    1
     2    28    21    1
     3    21    22   ar
     4    22    23   ar
     5    23    24   ar
     6    24    19    1
     7    19    20    1
     8    19    17    1
     9     9    17    1
    10     9    10    1
    11    10    11    1
    12    11    12    1
    13    12     1    1
    14     1     2    2
    15     1     3   am
    16     3     4    1
    17     4     5    1
    18     5     6    1
    19     6    36    1
    20    36    37   ar
    21    37    38   ar
    22    38    39   ar
    23    39    40   ar
    24    40    41   ar
    25     6    29    1
    26    29    30    1
    27    30    31    1
    28    31    32    1
    29    32    33    1
    30    33    34    1
    31    34    35    2
    32     6     7    1
    33     7     8    1
    34    12    13    1
    35    13    14    1
    36    13    15    1
    37    13    16    1
    38    24    25   ar
    39    25    26   ar
    40    26    21   ar
    41    16     9    1
    42     8     3    1
    43    41    36   ar
    44    34    29   am
    45    17    18    1
@<TRIPOS>MOLECULE
*****
 41 45 0 0 0
SMALL
GASTEIGER

@<TRIPOS>ATOM
      1 C         142.6583  144.2190  163.1378 C.2     1  UNL1        0.2251
      2 O         143.6952  145.1853  163.6288 O.2     1  UNL1       -0.2749
      3 N         142.1845  143.1099  164.0297 N.am    1  UNL1       -0.2794
      4 C         141.1476  142.1437  163.5387 C.3     1  UNL1        0.0954
      5 C         140.6737  141.0346  164.4306 C.3     1  UNL1        0.0441
      6 C         141.2369  140.8918  165.8136 C.3     1  UNL1        0.0856
      7 C         142.2738  141.8581  166.3046 C.3     1  UNL1        0.0441
      8 C         142.7476  142.9672  165.4126 C.3     1  UNL1        0.0954
      9 C         140.9689  144.6473  158.9890 C.3     1  UNL1        0.0542
     10 C         142.1424  143.7451  159.2315 C.3     1  UNL1        0.0162
     11 C         142.7055  143.6023  160.6144 C.3     1  UNL1        0.0104
     12 C         142.0951  144.3617  161.7549 C.3     1  UNL1        0.0768
     13 C         140.9215  145.2640  161.5124 C.3     1  UNL1        0.0095
     14 C         139.8094  146.2335  161.7828 C.3     1  UNL1        0.0005
     15 C         141.0984  145.4579  162.9892 C.3     1  UNL1        0.0005
     16 C         140.3584  145.4068  160.1295 C.3     1  UNL1        0.0162
     17 N         140.4057  144.7901  157.6061 N.3     1  UNL1       -0.2962
     18 H         139.4662  145.1736  157.7089 H       1  UNL1        0.1235
     19 C         140.2879  143.5881  156.7165 C.3     1  UNL1        0.0768
     20 C         141.4232  143.2103  155.8120 C.3     1  UNL1        0.0220
     21 C         136.5281  141.1158  156.7612 C.ar    1  UNL1        0.1387
     22 C         137.6431  140.8025  157.7144 C.ar    1  UNL1        0.0366
     23 C         138.8964  141.6266  157.6995 C.ar    1  UNL1        0.0001
     24 C         139.0346  142.7640  156.7314 C.ar    1  UNL1       -0.0078
     25 C         137.9196  143.0773  155.7782 C.ar    1  UNL1        0.0001
     26 C         136.6664  142.2532  155.7932 C.ar    1  UNL1        0.0366
     27 C         134.5325  140.0324  155.4988 C.3     1  UNL1        0.2525
     28 O         135.2749  140.2917  156.7761 O.3     1  UNL1       -0.4714
     29 N         140.2801  139.7367  165.8013 N.am    1  UNL1       -0.2455
     30 C         138.9458  139.8608  166.4755 C.3     1  UNL1        0.1008
     31 C         137.9891  138.7056  166.4632 C.3     1  UNL1        0.0691
     32 C         138.3665  137.4264  165.7770 C.3     1  UNL1        0.2119
     33 O         139.7008  137.3023  165.1028 O.3     1  UNL1       -0.4345
     34 C         140.6576  138.4574  165.1151 C.2     1  UNL1        0.4050
     35 O         141.9918  138.3333  164.4409 O.2     1  UNL1       -0.2262
     36 C         141.4677  140.3479  167.1922 C.ar    1  UNL1       -0.0059
     37 C         142.6200  139.4228  167.4503 C.ar    1  UNL1       -0.0027
     38 C         142.8508  138.8789  168.8290 C.ar    1  UNL1       -0.0003
     39 C         141.9295  139.2599  169.9496 C.ar    1  UNL1       -0.0000
     40 C         140.7773  140.1850  169.6916 C.ar    1  UNL1       -0.0003
     41 C         140.5463  140.7290  168.3129 C.ar    1  UNL1       -0.0027
@<TRIPOS>BOND
     1    27    28    1
     2    28    21    1
     3    21    22   ar
     4    22    23   ar
     5    23    24   ar
     6    24    19    1
     7    19    20    1
     8    19    17    1
     9     9    17    1
    10     9    10    1
    11    10    11    1
    12    11    12    1
    13    12     1    1
    14     1     2    2
    15     1     3   am
    16     3     4    1
    17     4     5    1
    18     5     6    1
    19     6    36    1
    20    36    37   ar
    21    37    38   ar
    22    38    39   ar
    23    39    40   ar
    24    40    41   ar
    25     6    29    1
    26    29    30    1
    27    30    31    1
    28    31    32    1
    29    32    33    1
    30    33    34    1
    31    34    35    2
    32     6     7    1
    33     7     8    1
    34    12    13    1
    35    13    14    1
    36    13    15    1
    37    13    16    1
    38    24    25   ar
    39    25    26   ar
    40    26    21   ar
    41    16     9    1
    42     8     3    1
    43    41    36   ar
    44    34    29   am
    45    17    18    1
@<TRIPOS>MOLECULE
*****
 41 45 0 0 0
SMALL
GASTEIGER

@<TRIPOS>ATOM
      1 C         140.5255  144.2910  161.7354 C.2     1  UNL1        0.2251
      2 O         141.4258  145.3118  162.3659 O.2     1  UNL1       -0.2749
      3 N         140.2665  144.3295  160.2584 N.am    1  UNL1       -0.2794
      4 C         139.3662  143.3087  159.6280 C.3     1  UNL1        0.0954
      5 C         139.1072  143.3472  158.1510 C.3     1  UNL1        0.0441
      6 C         139.7484  144.4066  157.3045 C.3     1  UNL1        0.0856
      7 C         140.6487  145.4274  157.9350 C.3     1  UNL1        0.0441
      8 C         140.9077  145.3889  159.4119 C.3     1  UNL1        0.0954
      9 C         138.6017  141.1130  164.2749 C.3     1  UNL1        0.0542
     10 C         139.7455  140.7602  163.3709 C.3     1  UNL1        0.0162
     11 C         140.3867  141.8195  162.5244 C.3     1  UNL1        0.0104
     12 C         139.8842  143.2317  162.5819 C.3     1  UNL1        0.0768
     13 C         138.7404  143.5845  163.4860 C.3     1  UNL1        0.0095
     14 C         137.6930  144.4041  164.1797 C.3     1  UNL1        0.0005
     15 C         139.0179  144.9284  162.8804 C.3     1  UNL1        0.0005
     16 C         138.0992  142.5252  164.3325 C.3     1  UNL1        0.0162
     17 N         137.9605  140.0537  165.1215 N.3     1  UNL1       -0.2962
     18 H         137.4087  140.5371  165.8301 H       1  UNL1        0.1235
     19 C         138.8129  139.0533  165.8443 C.3     1  UNL1        0.0768
     20 C         138.6634  137.5898  165.5516 C.3     1  UNL1        0.0220
     21 C         141.8189  140.4428  168.8912 C.ar    1  UNL1        0.1387
     22 C         140.3578  140.4308  169.2305 C.ar    1  UNL1        0.0366
     23 C         139.3558  139.9676  168.2148 C.ar    1  UNL1        0.0001
     24 C         139.8149  139.5165  166.8600 C.ar    1  UNL1       -0.0078
     25 C         141.2759  139.5285  166.5207 C.ar    1  UNL1        0.0001
     26 C         142.2779  139.9917  167.5364 C.ar    1  UNL1        0.0366
     27 C         143.6269  142.1455  169.6541 C.3     1  UNL1        0.2525
     28 O         142.8208  140.9060  169.9069 O.3     1  UNL1       -0.4714
     29 N         138.9779  143.6641  156.2533 N.am    1  UNL1       -0.2455
     30 C         137.7390  144.2699  155.6633 C.3     1  UNL1        0.1008
     31 C         136.9684  143.5274  154.6121 C.3     1  UNL1        0.0691
     32 C         137.4369  142.1792  154.1509 C.3     1  UNL1        0.2119
     33 O         138.6758  141.5734  154.7408 O.3     1  UNL1       -0.4345
     34 C         139.4463  142.3159  155.7920 C.2     1  UNL1        0.4050
     35 O         140.6853  141.7101  156.3819 O.2     1  UNL1       -0.2262
     36 C         140.1221  145.2080  156.0929 C.ar    1  UNL1       -0.0059
     37 C         139.4806  146.5418  155.8488 C.ar    1  UNL1       -0.0027
     38 C         139.8543  147.3433  154.6372 C.ar    1  UNL1       -0.0003
     39 C         140.8694  146.8111  153.6697 C.ar    1  UNL1       -0.0000
     40 C         141.5109  145.4773  153.9138 C.ar    1  UNL1       -0.0003
     41 C         141.1373  144.6758  155.1253 C.ar    1  UNL1       -0.0027
@<TRIPOS>BOND
     1    27    28    1
     2    28    21    1
     3    21    22   ar
     4    22    23   ar
     5    23    24   ar
     6    24    19    1
     7    19    20    1
     8    19    17    1
     9     9    17    1
    10     9    10    1
    11    10    11    1
    12    11    12    1
    13    12     1    1
    14     1     2    2
    15     1     3   am
    16     3     4    1
    17     4     5    1
    18     5     6    1
    19     6    36    1
    20    36    37   ar
    21    37    38   ar
    22    38    39   ar
    23    39    40   ar
    24    40    41   ar
    25     6    29    1
    26    29    30    1
    27    30    31    1
    28    31    32    1
    29    32    33    1
    30    33    34    1
    31    34    35    2
    32     6     7    1
    33     7     8    1
    34    12    13    1
    35    13    14    1
    36    13    15    1
    37    13    16    1
    38    24    25   ar
    39    25    26   ar
    40    26    21   ar
    41    16     9    1
    42     8     3    1
    43    41    36   ar
    44    34    29   am
    45    17    18    1
@<TRIPOS>MOLECULE
*****
 41 45 0 0 0
SMALL
GASTEIGER

@<TRIPOS>ATOM
      1 C         142.9574  144.0238  162.4166 C.2     1  UNL1        0.2251
      2 O         143.9688  145.0495  162.8354 O.2     1  UNL1       -0.2749
      3 N         142.4221  143.0453  163.4195 N.am    1  UNL1       -0.2794
      4 C         141.4108  142.0197  163.0007 C.3     1  UNL1        0.0954
      5 C         140.8755  141.0411  164.0036 C.3     1  UNL1        0.0441
      6 C         141.3515  141.0881  165.4253 C.3     1  UNL1        0.0856
      7 C         142.3628  142.1137  165.8441 C.3     1  UNL1        0.0441
      8 C         142.8981  143.0923  164.8412 C.3     1  UNL1        0.0954
      9 C         141.5295  143.8828  158.1516 C.3     1  UNL1        0.0542
     10 C         140.7418  144.6368  159.1816 C.3     1  UNL1        0.0162
     11 C         141.2178  144.6838  160.6033 C.3     1  UNL1        0.0104
     12 C         142.4814  143.9768  160.9950 C.3     1  UNL1        0.0768
     13 C         143.2691  143.2228  159.9648 C.3     1  UNL1        0.0095
     14 C         144.3528  142.3839  159.3549 C.3     1  UNL1        0.0005
     15 C         144.1215  142.9785  161.1747 C.3     1  UNL1        0.0005
     16 C         142.7932  143.1758  158.5432 C.3     1  UNL1        0.0162
     17 N         141.0535  143.8358  156.7299 N.3     1  UNL1       -0.2962
     18 H         141.6694  144.4462  156.1928 H       1  UNL1        0.1235
     19 C         139.6473  144.2374  156.3960 C.3     1  UNL1        0.0768
     20 C         139.3427  145.6561  156.0162 C.3     1  UNL1        0.0220
     21 C         136.3428  141.1860  156.5342 C.ar    1  UNL1        0.1387
     22 C         136.2659  142.3316  155.5690 C.ar    1  UNL1        0.0366
     23 C         137.3674  143.3487  155.5230 C.ar    1  UNL1        0.0001
     24 C         138.5458  143.2202  156.4421 C.ar    1  UNL1       -0.0078
     25 C         138.6227  142.0746  157.4072 C.ar    1  UNL1        0.0001
     26 C         137.5212  141.0575  157.4533 C.ar    1  UNL1        0.0366
     27 C         133.9364  140.4449  155.8940 C.3     1  UNL1        0.2525
     28 O         135.2413  140.1688  156.5802 O.3     1  UNL1       -0.4714
     29 N         140.3894  139.9404  165.5105 N.am    1  UNL1       -0.2455
     30 C         139.0442  140.1349  166.1451 C.3     1  UNL1        0.1008
     31 C         138.0822  138.9872  166.2303 C.3     1  UNL1        0.0691
     32 C         138.4653  137.6451  165.6810 C.3     1  UNL1        0.2119
     33 O         139.8105  137.4506  165.0464 O.3     1  UNL1       -0.4345
     34 C         140.7725  138.5983  164.9612 C.2     1  UNL1        0.4050
     35 O         142.1177  138.4038  164.3266 O.2     1  UNL1       -0.2262
     36 C         141.4933  140.7365  166.8766 C.ar    1  UNL1       -0.0059
     37 C         140.6927  141.4739  167.9087 C.ar    1  UNL1       -0.0027
     38 C         140.8346  141.1223  169.3600 C.ar    1  UNL1       -0.0003
     39 C         141.7771  140.0334  169.7792 C.ar    1  UNL1       -0.0000
     40 C         142.5778  139.2961  168.7472 C.ar    1  UNL1       -0.0003
     41 C         142.4360  139.6476  167.2958 C.ar    1  UNL1       -0.0027
@<TRIPOS>BOND
     1    27    28    1
     2    28    21    1
     3    21    22   ar
     4    22    23   ar
     5    23    24   ar
     6    24    19    1
     7    19    20    1
     8    19    17    1
     9     9    17    1
    10     9    10    1
    11    10    11    1
    12    11    12    1
    13    12     1    1
    14     1     2    2
    15     1     3   am
    16     3     4    1
    17     4     5    1
    18     5     6    1
    19     6    36    1
    20    36    37   ar
    21    37    38   ar
    22    38    39   ar
    23    39    40   ar
    24    40    41   ar
    25     6    29    1
    26    29    30    1
    27    30    31    1
    28    31    32    1
    29    32    33    1
    30    33    34    1
    31    34    35    2
    32     6     7    1
    33     7     8    1
    34    12    13    1
    35    13    14    1
    36    13    15    1
    37    13    16    1
    38    24    25   ar
    39    25    26   ar
    40    26    21   ar
    41    16     9    1
    42     8     3    1
    43    41    36   ar
    44    34    29   am
    45    17    18    1
@<TRIPOS>MOLECULE
*****
 41 45 0 0 0
SMALL
GASTEIGER

@<TRIPOS>ATOM
      1 C         140.1759  144.8114  161.9554 C.2     1  UNL1        0.2251
      2 O         140.0292  146.2963  161.8012 O.2     1  UNL1       -0.2749
      3 N         140.1908  143.9293  160.7423 N.am    1  UNL1       -0.2794
      4 C         140.3374  142.4445  160.8965 C.3     1  UNL1        0.0954
      5 C         140.3523  141.5623  159.6834 C.3     1  UNL1        0.0441
      6 C         140.2205  142.1650  158.3161 C.3     1  UNL1        0.0856
      7 C         140.0738  143.6499  158.1620 C.3     1  UNL1        0.0441
      8 C         140.0590  144.5320  159.3750 C.3     1  UNL1        0.0954
      9 C         140.5714  143.0034  166.0572 C.3     1  UNL1        0.0542
     10 C         141.7851  143.1736  165.1924 C.3     1  UNL1        0.0162
     11 C         141.6533  143.7763  163.8251 C.3     1  UNL1        0.0104
     12 C         140.3077  144.2087  163.3226 C.3     1  UNL1        0.0768
     13 C         139.0939  144.0385  164.1874 C.3     1  UNL1        0.0095
     14 C         137.6617  144.0828  164.6308 C.3     1  UNL1        0.0005
     15 C         138.4647  144.6565  162.9742 C.3     1  UNL1        0.0005
     16 C         139.2257  143.4358  165.5547 C.3     1  UNL1        0.0162
     17 N         140.7032  142.4007  167.4244 N.3     1  UNL1       -0.2962
     18 H         141.6703  142.5416  167.7163 H       1  UNL1        0.1235
     19 C         140.3940  140.9484  167.6369 C.3     1  UNL1        0.0768
     20 C         140.3445  140.3877  169.0272 C.3     1  UNL1        0.0220
     21 C         139.6150  138.2734  164.1031 C.ar    1  UNL1        0.1387
     22 C         138.4664  138.8943  164.8414 C.ar    1  UNL1        0.0366
     23 C         138.7260  139.7859  166.0193 C.ar    1  UNL1        0.0001
     24 C         140.1343  140.0567  166.4589 C.ar    1  UNL1       -0.0078
     25 C         141.2830  139.4358  165.7207 C.ar    1  UNL1        0.0001
     26 C         141.0233  138.5442  164.5427 C.ar    1  UNL1        0.0366
     27 C         139.3297  137.9571  161.5402 C.3     1  UNL1        0.2525
     28 O         139.3553  137.3817  162.9252 O.3     1  UNL1       -0.4714
     29 N         140.3352  140.7145  157.9515 N.am    1  UNL1       -0.2455
     30 C         141.6311  140.1742  157.4234 C.3     1  UNL1        0.1008
     31 C         141.7458  138.7237  157.0588 C.3     1  UNL1        0.0691
     32 C         140.5648  137.8136  157.2222 C.3     1  UNL1        0.2119
     33 O         139.2689  138.3539  157.7502 O.3     1  UNL1       -0.4345
     34 C         139.1542  139.8044  158.1149 C.2     1  UNL1        0.4050
     35 O         137.8583  140.3448  158.6429 O.2     1  UNL1       -0.2262
     36 C         140.1285  142.2639  156.8222 C.ar    1  UNL1       -0.0059
     37 C         141.3488  142.5970  156.0161 C.ar    1  UNL1       -0.0027
     38 C         141.2568  142.6959  154.5222 C.ar    1  UNL1       -0.0003
     39 C         139.9446  142.4619  153.8344 C.ar    1  UNL1       -0.0000
     40 C         138.7243  142.1288  154.6405 C.ar    1  UNL1       -0.0003
     41 C         138.8162  142.0298  156.1344 C.ar    1  UNL1       -0.0027
@<TRIPOS>BOND
     1    27    28    1
     2    28    21    1
     3    21    22   ar
     4    22    23   ar
     5    23    24   ar
     6    24    19    1
     7    19    20    1
     8    19    17    1
     9     9    17    1
    10     9    10    1
    11    10    11    1
    12    11    12    1
    13    12     1    1
    14     1     2    2
    15     1     3   am
    16     3     4    1
    17     4     5    1
    18     5     6    1
    19     6    36    1
    20    36    37   ar
    21    37    38   ar
    22    38    39   ar
    23    39    40   ar
    24    40    41   ar
    25     6    29    1
    26    29    30    1
    27    30    31    1
    28    31    32    1
    29    32    33    1
    30    33    34    1
    31    34    35    2
    32     6     7    1
    33     7     8    1
    34    12    13    1
    35    13    14    1
    36    13    15    1
    37    13    16    1
    38    24    25   ar
    39    25    26   ar
    40    26    21   ar
    41    16     9    1
    42     8     3    1
    43    41    36   ar
    44    34    29   am
    45    17    18    1
@<TRIPOS>MOLECULE
*****
 41 45 0 0 0
SMALL
GASTEIGER

@<TRIPOS>ATOM
      1 C         140.5275  145.0610  162.1432 C.2     1  UNL1        0.2251
      2 O         140.1802  146.5182  162.0637 O.2     1  UNL1       -0.2749
      3 N         140.9005  144.3100  160.8996 N.am    1  UNL1       -0.2794
      4 C         141.2477  142.8529  160.9792 C.3     1  UNL1        0.0954
      5 C         141.6208  142.1018  159.7355 C.3     1  UNL1        0.0441
      6 C         141.6467  142.8078  158.4123 C.3     1  UNL1        0.0856
      7 C         141.2995  144.2649  158.3328 C.3     1  UNL1        0.0441
      8 C         140.9264  145.0160  159.5764 C.3     1  UNL1        0.0954
      9 C         140.4497  142.9429  166.1128 C.3     1  UNL1        0.0542
     10 C         141.7598  143.2264  165.4395 C.3     1  UNL1        0.0162
     11 C         141.7857  143.9324  164.1163 C.3     1  UNL1        0.0104
     12 C         140.5015  144.3550  163.4664 C.3     1  UNL1        0.0768
     13 C         139.1914  144.0715  164.1397 C.3     1  UNL1        0.0095
     14 C         137.7119  144.0280  164.3829 C.3     1  UNL1        0.0005
     15 C         138.7035  144.7624  162.9010 C.3     1  UNL1        0.0005
     16 C         139.1655  143.3655  165.4629 C.3     1  UNL1        0.0162
     17 N         140.4238  142.2369  167.4360 N.3     1  UNL1       -0.2962
     18 H         141.3772  142.2551  167.7982 H       1  UNL1        0.1235
     19 C         139.9566  140.8139  167.5178 C.3     1  UNL1        0.0768
     20 C         139.5062  140.2468  168.8314 C.3     1  UNL1        0.0220
     21 C         139.9063  138.2463  163.8226 C.ar    1  UNL1        0.1387
     22 C         138.6340  138.8603  164.3266 C.ar    1  UNL1        0.0366
     23 C         138.6507  139.7162  165.5583 C.ar    1  UNL1        0.0001
     24 C         139.9398  139.9580  166.2861 C.ar    1  UNL1       -0.0078
     25 C         141.2122  139.3440  165.7821 C.ar    1  UNL1        0.0001
     26 C         141.1954  138.4881  164.5503 C.ar    1  UNL1        0.0366
     27 C         139.5693  138.0000  161.2583 C.3     1  UNL1        0.2525
     28 O         139.8896  137.3904  162.5908 O.3     1  UNL1       -0.4714
     29 N         142.0518  141.4297  157.9802 N.am    1  UNL1       -0.2455
     30 C         141.0659  140.5438  157.2778 C.3     1  UNL1        0.1008
     31 C         141.4709  139.1657  156.8457 C.3     1  UNL1        0.0691
     32 C         142.8617  138.6734  157.1160 C.3     1  UNL1        0.2119
     33 O         143.8477  139.5593  157.8184 O.3     1  UNL1       -0.4345
     34 C         143.4426  140.9374  158.2504 C.2     1  UNL1        0.4050
     35 O         144.4285  141.8232  158.9528 O.2     1  UNL1       -0.2262
     36 C         141.8133  143.0352  156.9390 C.ar    1  UNL1       -0.0059
     37 C         140.6103  143.0609  156.0434 C.ar    1  UNL1       -0.0027
     38 C         140.7770  143.2884  154.5701 C.ar    1  UNL1       -0.0003
     39 C         142.1464  143.4901  153.9925 C.ar    1  UNL1       -0.0000
     40 C         143.3494  143.4643  154.8881 C.ar    1  UNL1       -0.0003
     41 C         143.1829  143.2369  156.3614 C.ar    1  UNL1       -0.0027
@<TRIPOS>BOND
     1    27    28    1
     2    28    21    1
     3    21    22   ar
     4    22    23   ar
     5    23    24   ar
     6    24    19    1
     7    19    20    1
     8    19    17    1
     9     9    17    1
    10     9    10    1
    11    10    11    1
    12    11    12    1
    13    12     1    1
    14     1     2    2
    15     1     3   am
    16     3     4    1
    17     4     5    1
    18     5     6    1
    19     6    36    1
    20    36    37   ar
    21    37    38   ar
    22    38    39   ar
    23    39    40   ar
    24    40    41   ar
    25     6    29    1
    26    29    30    1
    27    30    31    1
    28    31    32    1
    29    32    33    1
    30    33    34    1
    31    34    35    2
    32     6     7    1
    33     7     8    1
    34    12    13    1
    35    13    14    1
    36    13    15    1
    37    13    16    1
    38    24    25   ar
    39    25    26   ar
    40    26    21   ar
    41    16     9    1
    42     8     3    1
    43    41    36   ar
    44    34    29   am
    45    17    18    1
@<TRIPOS>MOLECULE
*****
 41 45 0 0 0
SMALL
GASTEIGER

@<TRIPOS>ATOM
      1 C         142.7216  144.0830  162.6797 C.2     1  UNL1        0.2251
      2 O         143.7026  145.1279  163.1226 O.2     1  UNL1       -0.2749
      3 N         142.2213  143.0615  163.6575 N.am    1  UNL1       -0.2794
      4 C         141.2404  142.0167  163.2146 C.3     1  UNL1        0.0954
      5 C         140.7401  140.9951  164.1924 C.3     1  UNL1        0.0441
      6 C         141.2208  141.0183  165.6131 C.3     1  UNL1        0.0856
      7 C         142.2018  142.0631  166.0560 C.3     1  UNL1        0.0441
      8 C         142.7020  143.0847  165.0782 C.3     1  UNL1        0.0954
      9 C         141.2795  144.0134  158.4176 C.3     1  UNL1        0.0542
     10 C         140.4670  144.7030  159.4731 C.3     1  UNL1        0.0162
     11 C         140.9477  144.7262  160.8938 C.3     1  UNL1        0.0104
     12 C         142.2409  144.0598  161.2590 C.3     1  UNL1        0.0768
     13 C         143.0535  143.3702  160.2035 C.3     1  UNL1        0.0095
     14 C         144.1674  142.5951  159.5643 C.3     1  UNL1        0.0005
     15 C         143.9210  143.1242  161.4022 C.3     1  UNL1        0.0005
     16 C         142.5728  143.3470  158.7828 C.3     1  UNL1        0.0162
     17 N         140.7989  143.9902  156.9969 N.3     1  UNL1       -0.2962
     18 H         140.1670  144.7834  156.8869 H       1  UNL1        0.1235
     19 C         140.0778  142.7857  156.4687 C.3     1  UNL1        0.0768
     20 C         139.6001  142.7612  155.0471 C.3     1  UNL1        0.0220
     21 C         139.3482  139.2453  159.1488 C.ar    1  UNL1        0.1387
     22 C         140.5676  139.2867  158.2763 C.ar    1  UNL1        0.0366
     23 C         140.8108  140.4668  157.3829 C.ar    1  UNL1        0.0001
     24 C         139.8346  141.6055  157.3621 C.ar    1  UNL1       -0.0078
     25 C         138.6153  141.5641  158.2346 C.ar    1  UNL1        0.0001
     26 C         138.3721  140.3839  159.1280 C.ar    1  UNL1        0.0366
     27 C         139.5670  138.0966  161.4689 C.3     1  UNL1        0.2525
     28 O         139.1050  138.0651  160.0422 O.3     1  UNL1       -0.4714
     29 N         140.2952  139.8393  165.6705 N.am    1  UNL1       -0.2455
     30 C         138.9576  139.9678  166.3373 C.3     1  UNL1        0.1008
     31 C         138.0320  138.7889  166.3946 C.3     1  UNL1        0.0691
     32 C         138.4438  137.4816  165.7854 C.3     1  UNL1        0.2119
     33 O         139.7814  137.3531  165.1187 O.3     1  UNL1       -0.4345
     34 C         140.7071  138.5321  165.0613 C.2     1  UNL1        0.4050
     35 O         142.0446  138.4036  164.3945 O.2     1  UNL1       -0.2262
     36 C         141.3800  140.6321  167.0537 C.ar    1  UNL1       -0.0059
     37 C         142.3846  139.5887  167.4439 C.ar    1  UNL1       -0.0027
     38 C         142.5438  139.2025  168.8846 C.ar    1  UNL1       -0.0003
     39 C         141.6985  139.8595  169.9351 C.ar    1  UNL1       -0.0000
     40 C         140.6939  140.9029  169.5449 C.ar    1  UNL1       -0.0003
     41 C         140.5346  141.2892  168.1043 C.ar    1  UNL1       -0.0027
@<TRIPOS>BOND
     1    27    28    1
     2    28    21    1
     3    21    22   ar
     4    22    23   ar
     5    23    24   ar
     6    24    19    1
     7    19    20    1
     8    19    17    1
     9     9    17    1
    10     9    10    1
    11    10    11    1
    12    11    12    1
    13    12     1    1
    14     1     2    2
    15     1     3   am
    16     3     4    1
    17     4     5    1
    18     5     6    1
    19     6    36    1
    20    36    37   ar
    21    37    38   ar
    22    38    39   ar
    23    39    40   ar
    24    40    41   ar
    25     6    29    1
    26    29    30    1
    27    30    31    1
    28    31    32    1
    29    32    33    1
    30    33    34    1
    31    34    35    2
    32     6     7    1
    33     7     8    1
    34    12    13    1
    35    13    14    1
    36    13    15    1
    37    13    16    1
    38    24    25   ar
    39    25    26   ar
    40    26    21   ar
    41    16     9    1
    42     8     3    1
    43    41    36   ar
    44    34    29   am
    45    17    18    1
