@<TRIPOS>MOLECULE
*****
 29 32 0 0 0
SMALL
GASTEIGER

@<TRIPOS>ATOM
      1 N         142.5502  141.1468  167.2525 N.pl3   1  UNL1       -0.2784
      2 C         142.4683  139.6535  167.1371 C.3     1  UNL1        0.0950
      3 C         142.5207  139.0017  165.7872 C.3     1  UNL1        0.0375
      4 C         142.6550  139.8431  164.5527 C.3     1  UNL1        0.0609
      5 C         142.7369  141.3363  164.6681 C.3     1  UNL1        0.0375
      6 C         142.6845  141.9882  166.0180 C.3     1  UNL1        0.0950
      7 N         143.7389  144.1553  171.4259 N.pl3   1  UNL1       -0.3277
      8 C         143.0442  143.1816  170.5207 C.ar    1  UNL1        0.2131
      9 N         141.7902  142.4224  170.8388 N.ar    1  UNL1       -0.1121
     10 N         141.4526  141.5678  169.6532 N.ar    1  UNL1       -0.1117
     11 C         142.4979  141.7988  168.6024 C.ar    1  UNL1        0.2194
     12 N         143.4816  142.7962  169.1386 N.ar    1  UNL1       -0.2979
     13 H         143.3728  144.3435  172.3202 H       1  UNL1        0.1451
     14 H         144.5611  144.6061  171.1258 H       1  UNL1        0.1451
     15 H         144.2749  143.1379  168.6664 H       1  UNL1        0.1713
     16 N         142.7073  139.1911  163.2028 N.3     1  UNL1       -0.2748
     17 C         143.9687  138.5238  162.7406 C.3     1  UNL1        0.0720
     18 C         144.0211  137.8718  161.3906 C.3     1  UNL1        0.0174
     19 C         142.8120  137.8872  160.5029 C.3     1  UNL1        0.0028
     20 C         141.5506  138.5545  160.9652 C.3     1  UNL1        0.0163
     21 C         141.4983  139.2065  162.3151 C.3     1  UNL1        0.0618
     22 C         140.2369  139.8738  162.7773 C.3     1  UNL1        0.0423
     23 C         139.4759  139.3140  163.9424 C.ar    1  UNL1       -0.0208
     24 C         138.8092  140.2391  164.9170 C.ar    1  UNL1       -0.0034
     25 C         138.0481  139.6793  166.0821 C.ar    1  UNL1        0.0111
     26 C         137.9538  138.1944  166.2726 C.ar    1  UNL1        0.0577
     27 CL        137.1927  137.6347  167.4377 Cl      1  UNL1       -0.0822
     28 C         138.6204  137.2694  165.2981 C.ar    1  UNL1        0.0111
     29 C         139.3815  137.8292  164.1330 C.ar    1  UNL1       -0.0034
@<TRIPOS>BOND
     1     7     8    1
     2     8     9   ar
     3     9    10   ar
     4    10    11   ar
     5    11     1    1
     6     1     2    1
     7     2     3    1
     8     3     4    1
     9     4    16    1
    10    16    17    1
    11    17    18    1
    12    18    19    1
    13    19    20    1
    14    20    21    1
    15    21    22    1
    16    22    23    1
    17    23    24   ar
    18    24    25   ar
    19    25    26   ar
    20    26    27    1
    21    26    28   ar
    22    28    29   ar
    23     4     5    1
    24     5     6    1
    25    11    12   ar
    26    12     8   ar
    27     6     1    1
    28    21    16    1
    29    29    23   ar
    30     7    13    1
    31     7    14    1
    32    12    15    1
@<TRIPOS>MOLECULE
*****
 29 32 0 0 0
SMALL
GASTEIGER

@<TRIPOS>ATOM
      1 N         140.9895  141.2401  168.0483 N.pl3   1  UNL1       -0.2784
      2 C         141.6195  141.5644  166.7262 C.3     1  UNL1        0.0950
      3 C         141.1008  140.9263  165.4717 C.3     1  UNL1        0.0375
      4 C         139.9521  139.9640  165.5393 C.3     1  UNL1        0.0609
      5 C         139.3221  139.6398  166.8614 C.3     1  UNL1        0.0375
      6 C         139.8408  140.2779  168.1159 C.3     1  UNL1        0.0950
      7 N         143.7986  144.2349  171.3682 N.pl3   1  UNL1       -0.3277
      8 C         142.7994  143.2547  170.8288 C.ar    1  UNL1        0.2131
      9 N         141.8133  142.4654  171.6380 N.ar    1  UNL1       -0.1121
     10 N         141.0153  141.6147  170.6949 N.ar    1  UNL1       -0.1117
     11 C         141.5082  141.8782  169.3029 C.ar    1  UNL1        0.2194
     12 N         142.6108  142.8918  169.3857 N.ar    1  UNL1       -0.2979
     13 H         143.8464  144.4067  172.3364 H       1  UNL1        0.1451
     14 H         144.4067  144.7063  170.7540 H       1  UNL1        0.1451
     15 H         143.1212  143.2551  168.6262 H       1  UNL1        0.1713
     16 N         139.4334  139.3259  164.2848 N.3     1  UNL1       -0.2748
     17 C         140.0261  138.0366  163.7987 C.3     1  UNL1        0.0720
     18 C         139.5074  137.3985  162.5442 C.3     1  UNL1        0.0174
     19 C         138.3960  138.0498  161.7757 C.3     1  UNL1        0.0028
     20 C         137.8032  139.3392  162.2618 C.3     1  UNL1        0.0163
     21 C         138.3219  139.9772  163.5163 C.3     1  UNL1        0.0618
     22 C         137.7292  141.2666  164.0024 C.3     1  UNL1        0.0423
     23 C         138.2800  142.5750  163.5180 C.ar    1  UNL1       -0.0208
     24 C         138.5943  142.7639  162.0634 C.ar    1  UNL1       -0.0034
     25 C         139.1451  144.0723  161.5789 C.ar    1  UNL1        0.0111
     26 C         139.3817  145.1917  162.5490 C.ar    1  UNL1        0.0577
     27 CL        139.9325  146.5001  162.0645 Cl      1  UNL1       -0.0822
     28 C         139.0674  145.0028  164.0035 C.ar    1  UNL1        0.0111
     29 C         138.5166  143.6944  164.4879 C.ar    1  UNL1       -0.0034
@<TRIPOS>BOND
     1     7     8    1
     2     8     9   ar
     3     9    10   ar
     4    10    11   ar
     5    11     1    1
     6     1     2    1
     7     2     3    1
     8     3     4    1
     9     4    16    1
    10    16    17    1
    11    17    18    1
    12    18    19    1
    13    19    20    1
    14    20    21    1
    15    21    22    1
    16    22    23    1
    17    23    24   ar
    18    24    25   ar
    19    25    26   ar
    20    26    27    1
    21    26    28   ar
    22    28    29   ar
    23     4     5    1
    24     5     6    1
    25    11    12   ar
    26    12     8   ar
    27     6     1    1
    28    21    16    1
    29    29    23   ar
    30     7    13    1
    31     7    14    1
    32    12    15    1
@<TRIPOS>MOLECULE
*****
 29 32 0 0 0
SMALL
GASTEIGER

@<TRIPOS>ATOM
      1 N         142.6285  141.0255  167.4718 N.pl3   1  UNL1       -0.2784
      2 C         142.5395  139.5309  167.3806 C.3     1  UNL1        0.0950
      3 C         142.5575  138.8590  166.0397 C.3     1  UNL1        0.0375
      4 C         142.6645  139.6816  164.7899 C.3     1  UNL1        0.0609
      5 C         142.7534  141.1761  164.8811 C.3     1  UNL1        0.0375
      6 C         142.7354  141.8481  166.2220 C.3     1  UNL1        0.0950
      7 N         143.7690  144.2692  171.4791 N.pl3   1  UNL1       -0.3277
      8 C         143.1347  143.1884  170.6547 C.ar    1  UNL1        0.2131
      9 N         142.0307  142.2746  171.0978 N.ar    1  UNL1       -0.1121
     10 N         141.7067  141.3532  169.9594 N.ar    1  UNL1       -0.1117
     11 C         142.6105  141.6975  168.8128 C.ar    1  UNL1        0.2194
     12 N         143.4930  142.8317  169.2425 N.ar    1  UNL1       -0.2979
     13 H         143.4635  144.4282  172.4014 H       1  UNL1        0.1451
     14 H         144.4908  144.8196  171.0979 H       1  UNL1        0.1451
     15 H         144.1857  143.2658  168.6939 H       1  UNL1        0.1713
     16 N         142.6825  139.0095  163.4490 N.3     1  UNL1       -0.2748
     17 C         143.9883  138.7452  162.7600 C.3     1  UNL1        0.0720
     18 C         144.0063  138.0732  161.4190 C.3     1  UNL1        0.0174
     19 C         142.7184  137.6655  160.7671 C.3     1  UNL1        0.0028
     20 C         141.4125  137.9298  161.4562 C.3     1  UNL1        0.0163
     21 C         141.3945  138.6018  162.7971 C.3     1  UNL1        0.0618
     22 C         140.0886  138.8661  163.4861 C.3     1  UNL1        0.0423
     23 C         139.4605  140.2260  163.4068 C.ar    1  UNL1       -0.0208
     24 C         138.4983  140.6708  164.4682 C.ar    1  UNL1       -0.0034
     25 C         137.8703  142.0307  164.3889 C.ar    1  UNL1        0.0111
     26 C         138.2043  142.9457  163.2481 C.ar    1  UNL1        0.0577
     27 CL        137.5763  144.3056  163.1688 Cl      1  UNL1       -0.0822
     28 C         139.1665  142.5009  162.1868 C.ar    1  UNL1        0.0111
     29 C         139.7945  141.1410  162.2662 C.ar    1  UNL1       -0.0034
@<TRIPOS>BOND
     1     7     8    1
     2     8     9   ar
     3     9    10   ar
     4    10    11   ar
     5    11     1    1
     6     1     2    1
     7     2     3    1
     8     3     4    1
     9     4    16    1
    10    16    17    1
    11    17    18    1
    12    18    19    1
    13    19    20    1
    14    20    21    1
    15    21    22    1
    16    22    23    1
    17    23    24   ar
    18    24    25   ar
    19    25    26   ar
    20    26    27    1
    21    26    28   ar
    22    28    29   ar
    23     4     5    1
    24     5     6    1
    25    11    12   ar
    26    12     8   ar
    27     6     1    1
    28    21    16    1
    29    29    23   ar
    30     7    13    1
    31     7    14    1
    32    12    15    1
@<TRIPOS>MOLECULE
*****
 29 32 0 0 0
SMALL
GASTEIGER

@<TRIPOS>ATOM
      1 N         140.8231  139.9870  167.6135 N.pl3   1  UNL1       -0.2784
      2 C         139.3272  139.9258  167.5212 C.3     1  UNL1        0.0950
      3 C         138.6627  139.8093  166.1815 C.3     1  UNL1        0.0375
      4 C         139.4940  139.7541  164.9342 C.3     1  UNL1        0.0609
      5 C         140.9899  139.8152  165.0265 C.3     1  UNL1        0.0375
      6 C         141.6544  139.9317  166.3661 C.3     1  UNL1        0.0950
      7 N         144.2097  139.3392  171.6126 N.pl3   1  UNL1       -0.3277
      8 C         143.0444  139.8057  170.7913 C.ar    1  UNL1        0.2131
      9 N         141.9765  140.7598  171.2382 N.ar    1  UNL1       -0.1121
     10 N         141.0145  140.9438  170.1021 N.ar    1  UNL1       -0.1117
     11 C         141.4878  140.1035  168.9532 C.ar    1  UNL1        0.2194
     12 N         142.7423  139.4001  169.3792 N.ar    1  UNL1       -0.2979
     13 H         144.3231  139.6637  172.5351 H       1  UNL1        0.1451
     14 H         144.8611  138.7085  171.2290 H       1  UNL1        0.1451
     15 H         143.2740  138.7810  168.8286 H       1  UNL1        0.1713
     16 N         138.8293  139.6376  163.5944 N.3     1  UNL1       -0.2748
     17 C         138.6158  138.2869  162.9781 C.3     1  UNL1        0.0720
     18 C         137.9511  138.1704  161.6384 C.3     1  UNL1        0.0174
     19 C         137.5001  139.4047  160.9151 C.3     1  UNL1        0.0028
     20 C         137.7137  140.7555  161.5315 C.3     1  UNL1        0.0163
     21 C         138.3783  140.8719  162.8712 C.3     1  UNL1        0.0618
     22 C         138.5919  142.2226  163.4876 C.3     1  UNL1        0.0423
     23 C         139.9181  142.9094  163.3481 C.ar    1  UNL1       -0.0208
     24 C         140.2375  144.1034  164.1981 C.ar    1  UNL1       -0.0034
     25 C         141.5637  144.7902  164.0586 C.ar    1  UNL1        0.0111
     26 C         142.5706  144.2830  163.0691 C.ar    1  UNL1        0.0577
     27 CL        143.8968  144.9698  162.9296 Cl      1  UNL1       -0.0822
     28 C         142.2512  143.0891  162.2191 C.ar    1  UNL1        0.0111
     29 C         140.9249  142.4023  162.3586 C.ar    1  UNL1       -0.0034
@<TRIPOS>BOND
     1     7     8    1
     2     8     9   ar
     3     9    10   ar
     4    10    11   ar
     5    11     1    1
     6     1     2    1
     7     2     3    1
     8     3     4    1
     9     4    16    1
    10    16    17    1
    11    17    18    1
    12    18    19    1
    13    19    20    1
    14    20    21    1
    15    21    22    1
    16    22    23    1
    17    23    24   ar
    18    24    25   ar
    19    25    26   ar
    20    26    27    1
    21    26    28   ar
    22    28    29   ar
    23     4     5    1
    24     5     6    1
    25    11    12   ar
    26    12     8   ar
    27     6     1    1
    28    21    16    1
    29    29    23   ar
    30     7    13    1
    31     7    14    1
    32    12    15    1
@<TRIPOS>MOLECULE
*****
 29 32 0 0 0
SMALL
GASTEIGER

@<TRIPOS>ATOM
      1 N         139.7091  139.9183  166.8953 N.pl3   1  UNL1       -0.2784
      2 C         138.9718  138.7478  166.3156 C.3     1  UNL1        0.0950
      3 C         138.7693  138.6487  164.8326 C.3     1  UNL1        0.0375
      4 C         139.3043  139.7201  163.9294 C.3     1  UNL1        0.0609
      5 C         140.0416  140.8906  164.5091 C.3     1  UNL1        0.0375
      6 C         140.2441  140.9897  165.9920 C.3     1  UNL1        0.0950
      7 N         141.9616  140.6050  171.6214 N.pl3   1  UNL1       -0.3277
      8 C         140.9469  140.3331  170.5506 C.ar    1  UNL1        0.2131
      9 N         139.4993  140.0068  170.7701 N.ar    1  UNL1       -0.1121
     10 N         138.8595  139.8117  169.4275 N.ar    1  UNL1       -0.1117
     11 C         139.9116  140.0174  168.3783 C.ar    1  UNL1        0.2194
     12 N         141.2017  140.3396  169.0724 N.ar    1  UNL1       -0.2979
     13 H         141.6965  140.5774  172.5691 H       1  UNL1        0.1451
     14 H         142.8926  140.8112  171.3764 H       1  UNL1        0.1451
     15 H         142.0642  140.5231  168.6347 H       1  UNL1        0.1713
     16 N         139.1018  139.6210  162.4464 N.3     1  UNL1       -0.2748
     17 C         137.9028  140.2581  161.8089 C.3     1  UNL1        0.0720
     18 C         137.7003  140.1590  160.3259 C.3     1  UNL1        0.0174
     19 C         138.6969  139.4227  159.4804 C.3     1  UNL1        0.0028
     20 C         139.8959  138.7856  160.1180 C.3     1  UNL1        0.0163
     21 C         140.0983  138.8847  161.6009 C.3     1  UNL1        0.0618
     22 C         141.2974  138.2476  162.2385 C.3     1  UNL1        0.0423
     23 C         142.4905  139.0839  162.5949 C.ar    1  UNL1       -0.0208
     24 C         143.2202  138.8394  163.8825 C.ar    1  UNL1       -0.0034
     25 C         144.4133  139.6758  164.2389 C.ar    1  UNL1        0.0111
     26 C         144.8768  140.7565  163.3076 C.ar    1  UNL1        0.0577
     27 CL        146.0699  141.5928  163.6640 Cl      1  UNL1       -0.0822
     28 C         144.1472  141.0009  162.0201 C.ar    1  UNL1        0.0111
     29 C         142.9540  140.1646  161.6637 C.ar    1  UNL1       -0.0034
@<TRIPOS>BOND
     1     7     8    1
     2     8     9   ar
     3     9    10   ar
     4    10    11   ar
     5    11     1    1
     6     1     2    1
     7     2     3    1
     8     3     4    1
     9     4    16    1
    10    16    17    1
    11    17    18    1
    12    18    19    1
    13    19    20    1
    14    20    21    1
    15    21    22    1
    16    22    23    1
    17    23    24   ar
    18    24    25   ar
    19    25    26   ar
    20    26    27    1
    21    26    28   ar
    22    28    29   ar
    23     4     5    1
    24     5     6    1
    25    11    12   ar
    26    12     8   ar
    27     6     1    1
    28    21    16    1
    29    29    23   ar
    30     7    13    1
    31     7    14    1
    32    12    15    1
@<TRIPOS>MOLECULE
*****
 29 32 0 0 0
SMALL
GASTEIGER

@<TRIPOS>ATOM
      1 N         140.4366  144.1443  163.6696 N.pl3   1  UNL1       -0.2784
      2 C         141.6825  143.5036  164.2054 C.3     1  UNL1        0.0950
      3 C         141.6784  142.8812  165.5701 C.3     1  UNL1        0.0375
      4 C         140.4284  142.8995  166.3991 C.3     1  UNL1        0.0609
      5 C         139.1825  143.5402  165.8633 C.3     1  UNL1        0.0375
      6 C         139.1866  144.1626  164.4986 C.3     1  UNL1        0.0950
      7 N         142.0050  145.7769  158.8993 N.pl3   1  UNL1       -0.3277
      8 C         141.1615  145.5172  160.1122 C.ar    1  UNL1        0.2131
      9 N         139.7319  145.9321  160.2972 N.ar    1  UNL1       -0.1121
     10 N         139.2864  145.4684  161.6524 N.ar    1  UNL1       -0.1117
     11 C         140.4406  144.7668  162.3048 C.ar    1  UNL1        0.2194
     12 N         141.5994  144.7970  161.3529 N.ar    1  UNL1       -0.2979
     13 H         141.6257  146.2609  158.1304 H       1  UNL1        0.1451
     14 H         142.9378  145.4634  158.8721 H       1  UNL1        0.1451
     15 H         142.4909  144.4118  161.5142 H       1  UNL1        0.1713
     16 N         140.4244  142.2771  167.7639 N.3     1  UNL1       -0.2748
     17 C         140.8837  143.0702  168.9513 C.3     1  UNL1        0.0720
     18 C         140.8797  142.4477  170.3161 C.3     1  UNL1        0.0174
     19 C         140.4164  141.0321  170.4934 C.3     1  UNL1        0.0028
     20 C         139.9571  140.2390  169.3059 C.3     1  UNL1        0.0163
     21 C         139.9612  140.8615  167.9412 C.3     1  UNL1        0.0618
     22 C         139.5019  140.0683  166.7537 C.3     1  UNL1        0.0423
     23 C         140.4941  139.6201  165.7219 C.ar    1  UNL1       -0.0208
     24 C         141.8368  139.1037  166.1471 C.ar    1  UNL1       -0.0034
     25 C         142.8290  138.6554  165.1154 C.ar    1  UNL1        0.0111
     26 C         142.4786  138.7236  163.6584 C.ar    1  UNL1        0.0577
     27 CL        143.4709  138.2754  162.6267 Cl      1  UNL1       -0.0822
     28 C         141.1360  139.2400  163.2333 C.ar    1  UNL1        0.0111
     29 C         140.1438  139.6882  164.2651 C.ar    1  UNL1       -0.0034
@<TRIPOS>BOND
     1     7     8    1
     2     8     9   ar
     3     9    10   ar
     4    10    11   ar
     5    11     1    1
     6     1     2    1
     7     2     3    1
     8     3     4    1
     9     4    16    1
    10    16    17    1
    11    17    18    1
    12    18    19    1
    13    19    20    1
    14    20    21    1
    15    21    22    1
    16    22    23    1
    17    23    24   ar
    18    24    25   ar
    19    25    26   ar
    20    26    27    1
    21    26    28   ar
    22    28    29   ar
    23     4     5    1
    24     5     6    1
    25    11    12   ar
    26    12     8   ar
    27     6     1    1
    28    21    16    1
    29    29    23   ar
    30     7    13    1
    31     7    14    1
    32    12    15    1
@<TRIPOS>MOLECULE
*****
 29 32 0 0 0
SMALL
GASTEIGER

@<TRIPOS>ATOM
      1 N         141.1008  143.6994  163.7359 N.pl3   1  UNL1       -0.2784
      2 C         140.0944  143.7439  164.8472 C.3     1  UNL1        0.0950
      3 C         140.3949  143.0799  166.1582 C.3     1  UNL1        0.0375
      4 C         141.7019  142.3713  166.3579 C.3     1  UNL1        0.0609
      5 C         142.7083  142.3268  165.2465 C.3     1  UNL1        0.0375
      6 C         142.4078  142.9908  163.9356 C.3     1  UNL1        0.0950
      7 N         141.6811  145.8894  158.9664 N.pl3   1  UNL1       -0.3277
      8 C         141.0671  145.3700  160.2326 C.ar    1  UNL1        0.2131
      9 N         139.6087  145.4005  160.5823 N.ar    1  UNL1       -0.1121
     10 N         139.4438  144.7784  161.9372 N.ar    1  UNL1       -0.1117
     11 C         140.8003  144.3634  162.4248 C.ar    1  UNL1        0.2194
     12 N         141.8035  144.7291  161.3713 N.ar    1  UNL1       -0.2979
     13 H         141.1116  146.2956  158.2736 H       1  UNL1        0.1451
     14 H         142.6537  145.8239  158.8280 H       1  UNL1        0.1451
     15 H         142.7748  144.5754  161.4189 H       1  UNL1        0.1713
     16 N         142.0024  141.7073  167.6689 N.3     1  UNL1       -0.2748
     17 C         143.0645  142.2679  168.5675 C.3     1  UNL1        0.0720
     18 C         143.3650  141.6039  169.8786 C.3     1  UNL1        0.0174
     19 C         142.6033  140.3792  170.2910 C.3     1  UNL1        0.0028
     20 C         141.5411  139.8186  169.3923 C.3     1  UNL1        0.0163
     21 C         141.2407  140.4826  168.0813 C.3     1  UNL1        0.0618
     22 C         140.1785  139.9220  167.1826 C.3     1  UNL1        0.0423
     23 C         140.5488  139.3683  165.8386 C.ar    1  UNL1       -0.0208
     24 C         139.5845  139.4698  164.6941 C.ar    1  UNL1       -0.0034
     25 C         139.9547  138.9160  163.3501 C.ar    1  UNL1        0.0111
     26 C         141.2893  138.2608  163.1506 C.ar    1  UNL1        0.0577
     27 CL        141.6595  137.7071  161.8066 Cl      1  UNL1       -0.0822
     28 C         142.2535  138.1594  164.2951 C.ar    1  UNL1        0.0111
     29 C         141.8833  138.7131  165.6391 C.ar    1  UNL1       -0.0034
@<TRIPOS>BOND
     1     7     8    1
     2     8     9   ar
     3     9    10   ar
     4    10    11   ar
     5    11     1    1
     6     1     2    1
     7     2     3    1
     8     3     4    1
     9     4    16    1
    10    16    17    1
    11    17    18    1
    12    18    19    1
    13    19    20    1
    14    20    21    1
    15    21    22    1
    16    22    23    1
    17    23    24   ar
    18    24    25   ar
    19    25    26   ar
    20    26    27    1
    21    26    28   ar
    22    28    29   ar
    23     4     5    1
    24     5     6    1
    25    11    12   ar
    26    12     8   ar
    27     6     1    1
    28    21    16    1
    29    29    23   ar
    30     7    13    1
    31     7    14    1
    32    12    15    1
@<TRIPOS>MOLECULE
*****
 29 32 0 0 0
SMALL
GASTEIGER

@<TRIPOS>ATOM
      1 N         143.7721  141.0568  161.5934 N.pl3   1  UNL1       -0.2784
      2 C         144.8370  140.5256  162.5066 C.3     1  UNL1        0.0950
      3 C         144.6104  140.5022  163.9891 C.3     1  UNL1        0.0375
      4 C         143.3189  141.0102  164.5586 C.3     1  UNL1        0.0609
      5 C         142.2541  141.5415  163.6454 C.3     1  UNL1        0.0375
      6 C         142.4807  141.5648  162.1629 C.3     1  UNL1        0.0950
      7 N         144.6223  142.7636  156.6694 N.pl3   1  UNL1       -0.3277
      8 C         144.3895  141.8647  157.8475 C.ar    1  UNL1        0.2131
      9 N         144.3052  140.3674  157.8110 N.ar    1  UNL1       -0.1121
     10 N         144.0637  139.8826  159.2098 N.ar    1  UNL1       -0.1117
     11 C         143.9987  141.0802  160.1108 C.ar    1  UNL1        0.2194
     12 N         144.2000  142.3051  159.2688 N.ar    1  UNL1       -0.2979
     13 H         144.7356  142.3779  155.7708 H       1  UNL1        0.1451
     14 H         144.6617  143.7393  156.7949 H       1  UNL1        0.1451
     15 H         144.2067  143.2350  159.5922 H       1  UNL1        0.1713
     16 N         143.0924  140.9868  166.0412 N.3     1  UNL1       -0.2748
     17 C         143.2328  142.2478  166.8413 C.3     1  UNL1        0.0720
     18 C         143.0062  142.2244  168.3240 C.3     1  UNL1        0.0174
     19 C         142.6392  140.9401  169.0065 C.3     1  UNL1        0.0028
     20 C         142.4988  139.6791  168.2063 C.3     1  UNL1        0.0163
     21 C         142.7254  139.7025  166.7237 C.3     1  UNL1        0.0618
     22 C         142.5850  138.4415  165.9235 C.3     1  UNL1        0.0423
     23 C         141.4545  138.2938  164.9486 C.ar    1  UNL1       -0.0208
     24 C         140.0578  138.6552  165.3595 C.ar    1  UNL1       -0.0034
     25 C         138.9274  138.5076  164.3846 C.ar    1  UNL1        0.0111
     26 C         139.1937  137.9985  162.9990 C.ar    1  UNL1        0.0577
     27 CL        138.0632  137.8509  162.0241 Cl      1  UNL1       -0.0822
     28 C         140.5903  137.6372  162.5882 C.ar    1  UNL1        0.0111
     29 C         141.7207  137.7848  163.5630 C.ar    1  UNL1       -0.0034
@<TRIPOS>BOND
     1     7     8    1
     2     8     9   ar
     3     9    10   ar
     4    10    11   ar
     5    11     1    1
     6     1     2    1
     7     2     3    1
     8     3     4    1
     9     4    16    1
    10    16    17    1
    11    17    18    1
    12    18    19    1
    13    19    20    1
    14    20    21    1
    15    21    22    1
    16    22    23    1
    17    23    24   ar
    18    24    25   ar
    19    25    26   ar
    20    26    27    1
    21    26    28   ar
    22    28    29   ar
    23     4     5    1
    24     5     6    1
    25    11    12   ar
    26    12     8   ar
    27     6     1    1
    28    21    16    1
    29    29    23   ar
    30     7    13    1
    31     7    14    1
    32    12    15    1
@<TRIPOS>MOLECULE
*****
 29 32 0 0 0
SMALL
GASTEIGER

@<TRIPOS>ATOM
      1 N         141.0534  140.5605  167.3116 N.pl3   1  UNL1       -0.2784
      2 C         142.4623  140.0521  167.2300 C.3     1  UNL1        0.0950
      3 C         143.0681  139.7325  165.8956 C.3     1  UNL1        0.0375
      4 C         142.2651  139.9212  164.6428 C.3     1  UNL1        0.0609
      5 C         140.8563  140.4295  164.7244 C.3     1  UNL1        0.0375
      6 C         140.2504  140.7492  166.0588 C.3     1  UNL1        0.0950
      7 N         139.0729  143.2215  171.4199 N.pl3   1  UNL1       -0.3277
      8 C         139.5372  142.1032  170.5345 C.ar    1  UNL1        0.2131
      9 N         139.4931  140.6407  170.8648 N.ar    1  UNL1       -0.1121
     10 N         140.0557  139.8848  169.6977 N.ar    1  UNL1       -0.1117
     11 C         140.4475  140.8801  168.6461 C.ar    1  UNL1        0.2194
     12 N         140.1271  142.2512  169.1633 N.ar    1  UNL1       -0.2979
     13 H         138.6979  143.0227  172.3082 H       1  UNL1        0.1451
     14 H         139.1433  144.1542  171.1128 H       1  UNL1        0.1451
     15 H         140.2775  143.0993  168.6865 H       1  UNL1        0.1713
     16 N         142.8710  139.6015  163.3083 N.3     1  UNL1       -0.2748
     17 C         142.6989  138.2349  162.7145 C.3     1  UNL1        0.0720
     18 C         143.3048  137.9153  161.3800 C.3     1  UNL1        0.0174
     19 C         144.0829  138.9623  160.6394 C.3     1  UNL1        0.0028
     20 C         144.2550  140.3289  161.2333 C.3     1  UNL1        0.0163
     21 C         143.6491  140.6485  162.5678 C.3     1  UNL1        0.0618
     22 C         143.8212  142.0152  163.1617 C.3     1  UNL1        0.0423
     23 C         142.8302  143.0978  162.8520 C.ar    1  UNL1       -0.0208
     24 C         142.5489  143.4718  161.4268 C.ar    1  UNL1       -0.0034
     25 C         141.5579  144.5544  161.1172 C.ar    1  UNL1        0.0111
     26 C         140.8481  145.2629  162.2327 C.ar    1  UNL1        0.0577
     27 CL        139.8571  146.3455  161.9230 Cl      1  UNL1       -0.0822
     28 C         141.1294  144.8888  163.6578 C.ar    1  UNL1        0.0111
     29 C         142.1204  143.8063  163.9674 C.ar    1  UNL1       -0.0034
@<TRIPOS>BOND
     1     7     8    1
     2     8     9   ar
     3     9    10   ar
     4    10    11   ar
     5    11     1    1
     6     1     2    1
     7     2     3    1
     8     3     4    1
     9     4    16    1
    10    16    17    1
    11    17    18    1
    12    18    19    1
    13    19    20    1
    14    20    21    1
    15    21    22    1
    16    22    23    1
    17    23    24   ar
    18    24    25   ar
    19    25    26   ar
    20    26    27    1
    21    26    28   ar
    22    28    29   ar
    23     4     5    1
    24     5     6    1
    25    11    12   ar
    26    12     8   ar
    27     6     1    1
    28    21    16    1
    29    29    23   ar
    30     7    13    1
    31     7    14    1
    32    12    15    1
