@<TRIPOS>MOLECULE
*****
 39 42 0 0 0
SMALL
GASTEIGER

@<TRIPOS>ATOM
      1 N         140.5347  138.9956  162.8921 N.3     1  UNL1       -0.2711
      2 C         141.1442  139.8033  161.7848 C.3     1  UNL1        0.0933
      3 C         140.8897  138.6794  160.8247 C.3     1  UNL1        0.1035
      4 C         140.2802  137.8717  161.9319 C.3     1  UNL1        0.0933
      5 C         139.7819  139.6663  167.2776 C.3     1  UNL1        0.1232
      6 O         138.7061  139.4632  168.3030 O.3     1  UNL1       -0.3812
      7 C         141.0977  140.0587  166.6739 C.3     1  UNL1        0.0341
      8 C         141.3487  139.8352  165.2121 C.3     1  UNL1        0.0188
      9 C         140.2837  139.2191  164.3539 C.3     1  UNL1        0.0578
     10 C         138.9679  138.8267  164.9576 C.3     1  UNL1        0.0188
     11 C         138.7169  139.0502  166.4194 C.3     1  UNL1        0.0341
     12 H         139.0178  139.7790  169.1656 H       1  UNL1        0.2107
     13 C         140.6803  142.0294  170.3368 C.ar    1  UNL1        0.2247
     14 C         141.8556  141.3029  170.9205 C.ar    1  UNL1        0.0577
     15 C         142.3397  140.0309  170.2900 C.ar    1  UNL1        0.0061
     16 C         141.6485  139.4853  169.0757 C.ar    1  UNL1        0.0173
     17 C         140.4732  140.2118  168.4920 C.ar    1  UNL1        0.0861
     18 N         139.9891  141.4838  169.1225 N.ar    1  UNL1       -0.2137
     19 C         140.2593  144.5895  170.2014 C.3     1  UNL1        0.2542
     20 O         140.1962  143.3014  170.9673 O.3     1  UNL1       -0.4561
     21 N         141.1406  138.4559  159.3628 N.am    1  UNL1       -0.3018
     22 C         142.5468  138.3870  158.8452 C.2     1  UNL1        0.2426
     23 O         143.7020  138.5418  159.7893 O.2     1  UNL1       -0.2733
     24 H         140.3824  138.3543  158.7431 H       1  UNL1        0.1495
     25 C         142.7977  138.1635  157.3832 C.3     1  UNL1        0.1759
     26 N         142.5395  136.8168  156.7753 N.am    1  UNL1       -0.2931
     27 C         143.5562  136.1989  155.8617 C.2     1  UNL1        0.2462
     28 O         144.8310  136.9279  155.5559 O.2     1  UNL1       -0.2701
     29 H         141.7028  136.3383  156.9760 H       1  UNL1        0.1502
     30 C         143.2980  134.8522  155.2537 C.ar    1  UNL1        0.0533
     31 C         142.4362  134.7337  154.0317 C.ar    1  UNL1        0.0045
     32 C         142.1781  133.3869  153.4238 C.ar    1  UNL1        0.0001
     33 C         142.7816  132.1587  154.0379 C.ar    1  UNL1        0.0039
     34 C         143.6433  132.2772  155.2600 C.ar    1  UNL1        0.0716
     35 C         143.9015  133.6240  155.8678 C.ar    1  UNL1        0.0084
     36 C         144.2468  131.0489  155.8741 C.3     1  UNL1        0.4186
     37 F         144.8503  129.8206  156.4882 F       1  UNL1       -0.1659
     38 F         143.0146  130.2684  155.5240 F       1  UNL1       -0.1659
     39 F         145.4790  131.8294  156.2242 F       1  UNL1       -0.1659
@<TRIPOS>BOND
     1    19    20    1
     2    20    13    1
     3    13    14   ar
     4    14    15   ar
     5    15    16   ar
     6    16    17   ar
     7    17     5    1
     8     5     6    1
     9     5     7    1
    10     7     8    1
    11     8     9    1
    12     9     1    1
    13     1     2    1
    14     2     3    1
    15     3    21    1
    16    21    22   am
    17    22    23    2
    18    22    25    1
    19    25    26    1
    20    26    27   am
    21    27    28    2
    22    27    30    1
    23    30    31   ar
    24    31    32   ar
    25    32    33   ar
    26    33    34   ar
    27    34    36    1
    28    36    37    1
    29    36    38    1
    30    36    39    1
    31    34    35   ar
    32     3     4    1
    33     9    10    1
    34    10    11    1
    35    17    18   ar
    36    18    13   ar
    37    11     5    1
    38     4     1    1
    39    35    30   ar
    40     6    12    1
    41    21    24    1
    42    26    29    1
@<TRIPOS>MOLECULE
*****
 39 42 0 0 0
SMALL
GASTEIGER

@<TRIPOS>ATOM
      1 N         141.9970  138.8547  162.7219 N.3     1  UNL1       -0.2711
      2 C         142.2528  139.6508  161.4766 C.3     1  UNL1        0.0933
      3 C         141.9675  138.4374  160.6422 C.3     1  UNL1        0.1035
      4 C         141.7117  137.6413  161.8876 C.3     1  UNL1        0.0933
      5 C         142.0594  139.7399  167.1335 C.3     1  UNL1        0.1232
      6 O         142.8911  139.4598  168.3500 O.3     1  UNL1       -0.3812
      7 C         140.9501  140.2743  166.2770 C.3     1  UNL1        0.0341
      8 C         140.9292  139.9792  164.8065 C.3     1  UNL1        0.0188
      9 C         142.0178  139.1497  164.1925 C.3     1  UNL1        0.0578
     10 C         143.1272  138.6154  165.0490 C.3     1  UNL1        0.0188
     11 C         143.1480  138.9105  166.5195 C.3     1  UNL1        0.0341
     12 H         142.4859  139.8829  169.1232 H       1  UNL1        0.2107
     13 C         139.5325  140.4477  170.1107 C.ar    1  UNL1        0.2247
     14 C         139.6602  141.9363  170.2431 C.ar    1  UNL1        0.0577
     15 C         140.5876  142.6929  169.3389 C.ar    1  UNL1        0.0061
     16 C         141.3874  141.9608  168.3024 C.ar    1  UNL1        0.0173
     17 C         141.2597  140.4721  168.1701 C.ar    1  UNL1        0.0861
     18 N         140.3322  139.7156  169.0742 N.ar    1  UNL1       -0.2137
     19 C         137.2189  139.3515  170.5530 C.3     1  UNL1        0.2542
     20 O         138.6050  139.6911  171.0148 O.3     1  UNL1       -0.4561
     21 N         141.9467  138.1423  159.1717 N.am    1  UNL1       -0.3018
     22 C         140.6625  138.2477  158.4038 C.2     1  UNL1        0.2426
     23 O         139.3991  138.6481  159.1062 O.2     1  UNL1       -0.2733
     24 H         142.7758  137.8795  158.7106 H       1  UNL1        0.1495
     25 C         140.6417  137.9526  156.9331 C.3     1  UNL1        0.1759
     26 N         140.9453  136.5684  156.4416 N.am    1  UNL1       -0.2931
     27 C         142.3693  136.1239  156.2843 C.2     1  UNL1        0.2462
     28 O         143.4896  137.0637  156.6186 O.2     1  UNL1       -0.2701
     29 H         140.2100  135.9516  156.2222 H       1  UNL1        0.1502
     30 C         142.6729  134.7396  155.7928 C.ar    1  UNL1        0.0533
     31 C         142.2864  134.3365  154.4006 C.ar    1  UNL1        0.0045
     32 C         142.5901  132.9522  153.9091 C.ar    1  UNL1        0.0001
     33 C         143.2803  131.9711  154.8097 C.ar    1  UNL1        0.0039
     34 C         143.6668  132.3743  156.2019 C.ar    1  UNL1        0.0716
     35 C         143.3631  133.7585  156.6933 C.ar    1  UNL1        0.0084
     36 C         144.3570  131.3931  157.1024 C.3     1  UNL1        0.4186
     37 F         145.0472  130.4120  158.0030 F       1  UNL1       -0.1659
     38 F         143.0253  130.8733  157.5566 F       1  UNL1       -0.1659
     39 F         145.6887  131.9130  156.6482 F       1  UNL1       -0.1659
@<TRIPOS>BOND
     1    19    20    1
     2    20    13    1
     3    13    14   ar
     4    14    15   ar
     5    15    16   ar
     6    16    17   ar
     7    17     5    1
     8     5     6    1
     9     5     7    1
    10     7     8    1
    11     8     9    1
    12     9     1    1
    13     1     2    1
    14     2     3    1
    15     3    21    1
    16    21    22   am
    17    22    23    2
    18    22    25    1
    19    25    26    1
    20    26    27   am
    21    27    28    2
    22    27    30    1
    23    30    31   ar
    24    31    32   ar
    25    32    33   ar
    26    33    34   ar
    27    34    36    1
    28    36    37    1
    29    36    38    1
    30    36    39    1
    31    34    35   ar
    32     3     4    1
    33     9    10    1
    34    10    11    1
    35    17    18   ar
    36    18    13   ar
    37    11     5    1
    38     4     1    1
    39    35    30   ar
    40     6    12    1
    41    21    24    1
    42    26    29    1
@<TRIPOS>MOLECULE
*****
 39 42 0 0 0
SMALL
GASTEIGER

@<TRIPOS>ATOM
      1 N         139.4593  138.8434  163.1302 N.3     1  UNL1       -0.2711
      2 C         140.2033  137.9102  162.2216 C.3     1  UNL1        0.0933
      3 C         139.4174  138.4227  161.0514 C.3     1  UNL1        0.1035
      4 C         138.6733  139.3559  161.9600 C.3     1  UNL1        0.0933
      5 C         139.5483  139.7360  167.5398 C.3     1  UNL1        0.1232
      6 O         138.6665  139.6407  168.7496 O.3     1  UNL1       -0.3812
      7 C         140.7521  140.0227  166.6922 C.3     1  UNL1        0.0341
      8 C         140.7225  139.7251  165.2223 C.3     1  UNL1        0.0188
      9 C         139.4889  139.1409  164.6001 C.3     1  UNL1        0.0578
     10 C         138.2851  138.8542  165.4477 C.3     1  UNL1        0.0188
     11 C         138.3148  139.1517  166.9176 C.3     1  UNL1        0.0341
     12 H         139.1452  139.9716  169.5256 H       1  UNL1        0.2107
     13 C         142.4645  139.9630  170.2221 C.ar    1  UNL1        0.2247
     14 C         142.3301  141.3892  170.6669 C.ar    1  UNL1        0.0577
     15 C         141.2684  142.2643  170.0694 C.ar    1  UNL1        0.0061
     16 C         140.3411  141.7133  169.0271 C.ar    1  UNL1        0.0173
     17 C         140.4756  140.2871  168.5822 C.ar    1  UNL1        0.0861
     18 N         141.5372  139.4120  169.1797 N.ar    1  UNL1       -0.2137
     19 C         143.5141  137.6106  170.5602 C.3     1  UNL1        0.2542
     20 O         143.5262  139.0879  170.8196 O.3     1  UNL1       -0.4561
     21 N         139.3877  138.1252  159.5815 N.am    1  UNL1       -0.3018
     22 C         140.5434  138.5234  158.7123 C.2     1  UNL1        0.2426
     23 O         141.7289  139.2191  159.3128 O.2     1  UNL1       -0.2733
     24 H         138.6097  137.6685  159.1873 H       1  UNL1        0.1495
     25 C         140.5138  138.2258  157.2423 C.3     1  UNL1        0.1759
     26 N         140.8572  136.8519  156.7481 N.am    1  UNL1       -0.2931
     27 C         142.2923  136.4255  156.6546 C.2     1  UNL1        0.2462
     28 O         143.3839  137.3731  157.0553 O.2     1  UNL1       -0.2701
     29 H         140.1408  136.2300  156.4851 H       1  UNL1        0.1502
     30 C         142.6358  135.0516  156.1604 C.ar    1  UNL1        0.0533
     31 C         142.3059  134.6571  154.7513 C.ar    1  UNL1        0.0045
     32 C         142.6494  133.2831  154.2572 C.ar    1  UNL1        0.0001
     33 C         143.3227  132.3036  155.1721 C.ar    1  UNL1        0.0039
     34 C         143.6526  132.6980  156.5812 C.ar    1  UNL1        0.0716
     35 C         143.3091  134.0720  157.0753 C.ar    1  UNL1        0.0084
     36 C         144.3260  131.7185  157.4961 C.3     1  UNL1        0.4186
     37 F         144.9994  130.7390  158.4111 F       1  UNL1       -0.1659
     38 F         143.2196  130.7344  157.2569 F       1  UNL1       -0.1659
     39 F         145.4325  132.7026  157.7354 F       1  UNL1       -0.1659
@<TRIPOS>BOND
     1    19    20    1
     2    20    13    1
     3    13    14   ar
     4    14    15   ar
     5    15    16   ar
     6    16    17   ar
     7    17     5    1
     8     5     6    1
     9     5     7    1
    10     7     8    1
    11     8     9    1
    12     9     1    1
    13     1     2    1
    14     2     3    1
    15     3    21    1
    16    21    22   am
    17    22    23    2
    18    22    25    1
    19    25    26    1
    20    26    27   am
    21    27    28    2
    22    27    30    1
    23    30    31   ar
    24    31    32   ar
    25    32    33   ar
    26    33    34   ar
    27    34    36    1
    28    36    37    1
    29    36    38    1
    30    36    39    1
    31    34    35   ar
    32     3     4    1
    33     9    10    1
    34    10    11    1
    35    17    18   ar
    36    18    13   ar
    37    11     5    1
    38     4     1    1
    39    35    30   ar
    40     6    12    1
    41    21    24    1
    42    26    29    1
@<TRIPOS>MOLECULE
*****
 39 42 0 0 0
SMALL
GASTEIGER

@<TRIPOS>ATOM
      1 N         143.5798  140.5238  162.4417 N.3     1  UNL1       -0.2711
      2 C         143.7306  141.2852  161.1582 C.3     1  UNL1        0.0933
      3 C         143.8828  139.9940  160.4101 C.3     1  UNL1        0.1035
      4 C         143.7320  139.2327  161.6937 C.3     1  UNL1        0.0933
      5 C         142.9369  141.6476  166.7514 C.3     1  UNL1        0.1232
      6 O         143.3114  142.7243  167.7264 O.3     1  UNL1       -0.3812
      7 C         142.3182  140.3963  166.2024 C.3     1  UNL1        0.0341
      8 C         142.5325  140.0217  164.7658 C.3     1  UNL1        0.0188
      9 C         143.3655  140.8984  163.8783 C.3     1  UNL1        0.0578
     10 C         143.9841  142.1497  164.4274 C.3     1  UNL1        0.0188
     11 C         143.7698  142.5243  165.8639 C.3     1  UNL1        0.0341
     12 H         142.9167  142.5294  168.5907 H       1  UNL1        0.2107
     13 C         140.1340  140.1060  169.1003 C.ar    1  UNL1        0.2247
     14 C         140.8282  140.1393  170.4296 C.ar    1  UNL1        0.0577
     15 C         142.2253  140.6755  170.5328 C.ar    1  UNL1        0.0061
     16 C         142.9282  141.1782  169.3068 C.ar    1  UNL1        0.0173
     17 C         142.2340  141.1448  167.9775 C.ar    1  UNL1        0.0861
     18 N         140.8369  140.6087  167.8743 N.ar    1  UNL1       -0.2137
     19 C         138.1723  139.2007  167.6574 C.3     1  UNL1        0.2542
     20 O         138.7369  139.5699  168.9971 O.3     1  UNL1       -0.4561
     21 N         144.0971  139.6194  158.9735 N.am    1  UNL1       -0.3018
     22 C         142.9470  139.1234  158.1482 C.2     1  UNL1        0.2426
     23 O         141.5826  139.0020  158.7594 O.2     1  UNL1       -0.2733
     24 H         144.9926  139.6990  158.5724 H       1  UNL1        0.1495
     25 C         143.1613  138.7488  156.7116 C.3     1  UNL1        0.1759
     26 N         143.5533  137.3461  156.3527 N.am    1  UNL1       -0.2931
     27 C         142.5090  136.2722  156.2748 C.2     1  UNL1        0.2462
     28 O         141.0726  136.6010  156.5557 O.2     1  UNL1       -0.2701
     29 H         144.4960  137.1303  156.1684 H       1  UNL1        0.1502
     30 C         142.9009  134.8695  155.9159 C.ar    1  UNL1        0.0533
     31 C         142.4914  134.2913  154.5938 C.ar    1  UNL1        0.0045
     32 C         142.8834  132.8886  154.2351 C.ar    1  UNL1        0.0001
     33 C         143.6849  132.0641  155.1983 C.ar    1  UNL1        0.0039
     34 C         144.0944  132.6423  156.5204 C.ar    1  UNL1        0.0716
     35 C         143.7024  134.0450  156.8792 C.ar    1  UNL1        0.0084
     36 C         144.8959  131.8178  157.4837 C.3     1  UNL1        0.4186
     37 F         145.6974  130.9934  158.4469 F       1  UNL1       -0.1659
     38 F         145.1387  133.0361  158.3244 F       1  UNL1       -0.1659
     39 F         144.6531  130.5996  156.6429 F       1  UNL1       -0.1659
@<TRIPOS>BOND
     1    19    20    1
     2    20    13    1
     3    13    14   ar
     4    14    15   ar
     5    15    16   ar
     6    16    17   ar
     7    17     5    1
     8     5     6    1
     9     5     7    1
    10     7     8    1
    11     8     9    1
    12     9     1    1
    13     1     2    1
    14     2     3    1
    15     3    21    1
    16    21    22   am
    17    22    23    2
    18    22    25    1
    19    25    26    1
    20    26    27   am
    21    27    28    2
    22    27    30    1
    23    30    31   ar
    24    31    32   ar
    25    32    33   ar
    26    33    34   ar
    27    34    36    1
    28    36    37    1
    29    36    38    1
    30    36    39    1
    31    34    35   ar
    32     3     4    1
    33     9    10    1
    34    10    11    1
    35    17    18   ar
    36    18    13   ar
    37    11     5    1
    38     4     1    1
    39    35    30   ar
    40     6    12    1
    41    21    24    1
    42    26    29    1
@<TRIPOS>MOLECULE
*****
 39 42 0 0 0
SMALL
GASTEIGER

@<TRIPOS>ATOM
      1 N         142.9659  139.1615  162.3607 N.3     1  UNL1       -0.2711
      2 C         143.6638  139.4138  161.0572 C.3     1  UNL1        0.0933
      3 C         142.9644  138.2320  160.4539 C.3     1  UNL1        0.1035
      4 C         142.2665  137.9796  161.7574 C.3     1  UNL1        0.0933
      5 C         142.9689  141.1331  166.4058 C.3     1  UNL1        0.1232
      6 O         143.4584  142.3836  167.0742 O.3     1  UNL1       -0.3812
      7 C         142.3098  139.7982  166.2226 C.3     1  UNL1        0.0341
      8 C         142.3088  139.1410  164.8743 C.3     1  UNL1        0.0188
      9 C         142.9669  139.8187  163.7091 C.3     1  UNL1        0.0578
     10 C         143.6260  141.1536  163.8922 C.3     1  UNL1        0.0188
     11 C         143.6270  141.8109  165.2406 C.3     1  UNL1        0.0341
     12 H         143.2092  142.3679  168.0115 H       1  UNL1        0.2107
     13 C         141.3499  141.7586  169.9748 C.ar    1  UNL1        0.2247
     14 C         141.5047  140.4029  170.5978 C.ar    1  UNL1        0.0577
     15 C         142.1475  139.2906  169.8234 C.ar    1  UNL1        0.0061
     16 C         142.6356  139.5340  168.4261 C.ar    1  UNL1        0.0173
     17 C         142.4808  140.8897  167.8032 C.ar    1  UNL1        0.0861
     18 N         141.8380  142.0020  168.5775 N.ar    1  UNL1       -0.2137
     19 C         140.3975  144.1738  170.0734 C.3     1  UNL1        0.2542
     20 O         140.7071  142.8709  170.7491 O.3     1  UNL1       -0.4561
     21 N         142.9634  137.5747  159.1056 N.am    1  UNL1       -0.3018
     22 C         142.0309  138.0597  158.0355 C.2     1  UNL1        0.2426
     23 O         141.0993  139.2020  158.3136 O.2     1  UNL1       -0.2733
     24 H         143.5749  136.8250  158.9229 H       1  UNL1        0.1495
     25 C         142.0299  137.4024  156.6871 C.3     1  UNL1        0.1759
     26 N         142.6630  136.0543  156.5095 N.am    1  UNL1       -0.2931
     27 C         142.0089  135.0283  155.6323 C.2     1  UNL1        0.2462
     28 O         140.7217  135.3505  154.9327 O.2     1  UNL1       -0.2701
     29 H         143.5078  135.8428  156.9686 H       1  UNL1        0.1502
     30 C         142.6419  133.6801  155.4547 C.ar    1  UNL1        0.0533
     31 C         142.6169  133.0107  154.1125 C.ar    1  UNL1        0.0045
     32 C         143.2500  131.6625  153.9350 C.ar    1  UNL1        0.0001
     33 C         143.9081  130.9836  155.0994 C.ar    1  UNL1        0.0039
     34 C         143.9332  131.6531  156.4416 C.ar    1  UNL1        0.0716
     35 C         143.3001  133.0013  156.6191 C.ar    1  UNL1        0.0084
     36 C         144.5913  130.9742  157.6061 C.3     1  UNL1        0.4186
     37 F         145.2495  130.2954  158.7706 F       1  UNL1       -0.1659
     38 F         145.7629  131.9032  157.4855 F       1  UNL1       -0.1659
     39 F         143.4198  130.0453  157.7267 F       1  UNL1       -0.1659
@<TRIPOS>BOND
     1    19    20    1
     2    20    13    1
     3    13    14   ar
     4    14    15   ar
     5    15    16   ar
     6    16    17   ar
     7    17     5    1
     8     5     6    1
     9     5     7    1
    10     7     8    1
    11     8     9    1
    12     9     1    1
    13     1     2    1
    14     2     3    1
    15     3    21    1
    16    21    22   am
    17    22    23    2
    18    22    25    1
    19    25    26    1
    20    26    27   am
    21    27    28    2
    22    27    30    1
    23    30    31   ar
    24    31    32   ar
    25    32    33   ar
    26    33    34   ar
    27    34    36    1
    28    36    37    1
    29    36    38    1
    30    36    39    1
    31    34    35   ar
    32     3     4    1
    33     9    10    1
    34    10    11    1
    35    17    18   ar
    36    18    13   ar
    37    11     5    1
    38     4     1    1
    39    35    30   ar
    40     6    12    1
    41    21    24    1
    42    26    29    1
@<TRIPOS>MOLECULE
*****
 39 42 0 0 0
SMALL
GASTEIGER

@<TRIPOS>ATOM
      1 N         139.8958  142.4086  161.0237 N.3     1  UNL1       -0.2711
      2 C         138.4376  142.5235  160.6914 C.3     1  UNL1        0.0933
      3 C         138.7714  142.5317  159.2291 C.3     1  UNL1        0.1035
      4 C         140.2296  142.4168  159.5614 C.3     1  UNL1        0.0933
      5 C         142.2809  142.1473  164.8306 C.3     1  UNL1        0.1232
      6 O         143.4020  142.8525  165.5349 O.3     1  UNL1       -0.3812
      7 C         141.1936  141.1509  164.5570 C.3     1  UNL1        0.0341
      8 C         140.3986  141.2380  163.2880 C.3     1  UNL1        0.0188
      9 C         140.6909  142.3215  162.2927 C.3     1  UNL1        0.0578
     10 C         141.7782  143.3179  162.5663 C.3     1  UNL1        0.0188
     11 C         142.5732  143.2308  163.8353 C.3     1  UNL1        0.0341
     12 H         143.5832  142.4095  166.3786 H       1  UNL1        0.2107
     13 C         142.1023  141.0533  168.6413 C.ar    1  UNL1        0.2247
     14 C         142.5721  139.6317  168.5504 C.ar    1  UNL1        0.0577
     15 C         142.9448  139.0486  167.2196 C.ar    1  UNL1        0.0061
     16 C         142.8478  139.8871  165.9797 C.ar    1  UNL1        0.0173
     17 C         142.3780  141.3087  166.0706 C.ar    1  UNL1        0.0861
     18 N         142.0053  141.8918  167.4014 N.ar    1  UNL1       -0.2137
     19 C         140.3705  142.2384  170.1731 C.3     1  UNL1        0.2542
     20 O         141.7296  141.6364  169.9721 O.3     1  UNL1       -0.4561
     21 N         137.9764  142.6188  157.9601 N.am    1  UNL1       -0.3018
     22 C         137.4954  141.3665  157.2890 C.2     1  UNL1        0.2426
     23 O         137.8094  140.0271  157.8868 O.2     1  UNL1       -0.2733
     24 H         137.7702  143.4979  157.5677 H       1  UNL1        0.1495
     25 C         136.7003  141.4536  156.0200 C.3     1  UNL1        0.1759
     26 N         135.2035  141.5324  156.0767 N.am    1  UNL1       -0.2931
     27 C         134.3799  140.2911  155.9016 C.2     1  UNL1        0.2462
     28 O         135.0532  138.9708  155.6698 O.2     1  UNL1       -0.2701
     29 H         134.7616  142.3989  156.2288 H       1  UNL1        0.1502
     30 C         132.8831  140.3699  155.9583 C.ar    1  UNL1        0.0533
     31 C         132.1645  141.4922  155.2698 C.ar    1  UNL1        0.0045
     32 C         130.6676  141.5710  155.3266 C.ar    1  UNL1        0.0001
     33 C         129.8893  140.5274  156.0717 C.ar    1  UNL1        0.0039
     34 C         130.6079  139.4051  156.7602 C.ar    1  UNL1        0.0716
     35 C         132.1048  139.3263  156.7035 C.ar    1  UNL1        0.0084
     36 C         129.8296  138.3615  157.5054 C.3     1  UNL1        0.4186
     37 F         129.0513  137.3180  158.2505 F       1  UNL1       -0.1659
     38 F         130.1237  137.3678  156.4209 F       1  UNL1       -0.1659
     39 F         129.5355  139.3553  158.5898 F       1  UNL1       -0.1659
@<TRIPOS>BOND
     1    19    20    1
     2    20    13    1
     3    13    14   ar
     4    14    15   ar
     5    15    16   ar
     6    16    17   ar
     7    17     5    1
     8     5     6    1
     9     5     7    1
    10     7     8    1
    11     8     9    1
    12     9     1    1
    13     1     2    1
    14     2     3    1
    15     3    21    1
    16    21    22   am
    17    22    23    2
    18    22    25    1
    19    25    26    1
    20    26    27   am
    21    27    28    2
    22    27    30    1
    23    30    31   ar
    24    31    32   ar
    25    32    33   ar
    26    33    34   ar
    27    34    36    1
    28    36    37    1
    29    36    38    1
    30    36    39    1
    31    34    35   ar
    32     3     4    1
    33     9    10    1
    34    10    11    1
    35    17    18   ar
    36    18    13   ar
    37    11     5    1
    38     4     1    1
    39    35    30   ar
    40     6    12    1
    41    21    24    1
    42    26    29    1
@<TRIPOS>MOLECULE
*****
 39 42 0 0 0
SMALL
GASTEIGER

@<TRIPOS>ATOM
      1 N         140.9042  143.4646  158.9491 N.3     1  UNL1       -0.2711
      2 C         141.3443  142.0374  159.0887 C.3     1  UNL1        0.0933
      3 C         141.6773  142.2811  160.5308 C.3     1  UNL1        0.1035
      4 C         141.2373  143.7082  160.3912 C.3     1  UNL1        0.0933
      5 C         139.2644  145.9752  155.5939 C.3     1  UNL1        0.1232
      6 O         138.2566  145.8956  154.4858 O.3     1  UNL1       -0.3812
      7 C         140.3313  146.5278  156.4918 C.3     1  UNL1        0.0341
      8 C         140.8779  145.6909  157.6102 C.3     1  UNL1        0.0188
      9 C         140.3576  144.3014  157.8307 C.3     1  UNL1        0.0578
     10 C         139.2907  143.7489  156.9328 C.3     1  UNL1        0.0188
     11 C         138.7440  144.5857  155.8144 C.3     1  UNL1        0.0341
     12 H         138.2531  146.7301  153.9913 H       1  UNL1        0.2107
     13 C         138.8914  149.8777  154.9759 C.ar    1  UNL1        0.2247
     14 C         139.7752  150.0607  153.7779 C.ar    1  UNL1        0.0577
     15 C         140.4888  148.8819  153.1853 C.ar    1  UNL1        0.0061
     16 C         140.3186  147.5201  153.7906 C.ar    1  UNL1        0.0173
     17 C         139.4347  147.3371  154.9886 C.ar    1  UNL1        0.0861
     18 N         138.7211  148.5159  155.5812 N.ar    1  UNL1       -0.2137
     19 C         138.4738  152.4402  155.0711 C.3     1  UNL1        0.2542
     20 O         138.1778  151.0564  155.5686 O.3     1  UNL1       -0.4561
     21 N         142.2239  141.4442  161.6492 N.am    1  UNL1       -0.3018
     22 C         141.2896  140.6818  162.5413 C.2     1  UNL1        0.2426
     23 O         139.8087  140.7562  162.3150 O.2     1  UNL1       -0.2733
     24 H         143.1959  141.3953  161.7977 H       1  UNL1        0.1495
     25 C         141.8363  139.8449  163.6597 C.3     1  UNL1        0.1759
     26 N         142.2399  140.4911  164.9518 N.am    1  UNL1       -0.2931
     27 C         141.1911  140.9397  165.9257 C.2     1  UNL1        0.2462
     28 O         139.7385  140.7423  165.6075 O.2     1  UNL1       -0.2701
     29 H         143.1933  140.6207  165.1606 H       1  UNL1        0.1502
     30 C         141.5947  141.5859  167.2178 C.ar    1  UNL1        0.0533
     31 C         143.0476  141.7417  167.5568 C.ar    1  UNL1        0.0045
     32 C         143.4511  142.3879  168.8489 C.ar    1  UNL1        0.0001
     33 C         142.4019  142.8782  169.8021 C.ar    1  UNL1        0.0039
     34 C         140.9490  142.7224  169.4631 C.ar    1  UNL1        0.0716
     35 C         140.5454  142.0763  168.1710 C.ar    1  UNL1        0.0084
     36 C         139.8997  143.2128  170.4164 C.3     1  UNL1        0.4186
     37 F         138.8505  143.7032  171.3696 F       1  UNL1       -0.1659
     38 F         140.2992  144.6294  170.1273 F       1  UNL1       -0.1659
     39 F         139.5003  141.7962  170.7054 F       1  UNL1       -0.1659
@<TRIPOS>BOND
     1    19    20    1
     2    20    13    1
     3    13    14   ar
     4    14    15   ar
     5    15    16   ar
     6    16    17   ar
     7    17     5    1
     8     5     6    1
     9     5     7    1
    10     7     8    1
    11     8     9    1
    12     9     1    1
    13     1     2    1
    14     2     3    1
    15     3    21    1
    16    21    22   am
    17    22    23    2
    18    22    25    1
    19    25    26    1
    20    26    27   am
    21    27    28    2
    22    27    30    1
    23    30    31   ar
    24    31    32   ar
    25    32    33   ar
    26    33    34   ar
    27    34    36    1
    28    36    37    1
    29    36    38    1
    30    36    39    1
    31    34    35   ar
    32     3     4    1
    33     9    10    1
    34    10    11    1
    35    17    18   ar
    36    18    13   ar
    37    11     5    1
    38     4     1    1
    39    35    30   ar
    40     6    12    1
    41    21    24    1
    42    26    29    1
@<TRIPOS>MOLECULE
*****
 39 42 0 0 0
SMALL
GASTEIGER

@<TRIPOS>ATOM
      1 N         142.7310  138.0399  158.8544 N.3     1  UNL1       -0.2711
      2 C         143.0981  137.4401  160.1793 C.3     1  UNL1        0.0933
      3 C         143.7698  138.7219  160.5737 C.3     1  UNL1        0.1035
      4 C         143.4027  139.3218  159.2488 C.3     1  UNL1        0.0933
      5 C         140.5273  136.5933  155.2074 C.3     1  UNL1        0.1232
      6 O         140.6322  135.5410  154.1436 O.3     1  UNL1       -0.3812
      7 C         139.9952  137.7545  155.9937 C.3     1  UNL1        0.0341
      8 C         140.7297  138.2368  157.2094 C.3     1  UNL1        0.0188
      9 C         141.9965  137.5577  157.6387 C.3     1  UNL1        0.0578
     10 C         142.5286  136.3965  156.8524 C.3     1  UNL1        0.0188
     11 C         141.7941  135.9143  155.6367 C.3     1  UNL1        0.0341
     12 H         139.8819  135.6214  153.5342 H       1  UNL1        0.2107
     13 C         136.8656  137.8139  154.2844 C.ar    1  UNL1        0.2247
     14 C         136.8364  137.5339  152.8111 C.ar    1  UNL1        0.0577
     15 C         138.0375  136.9404  152.1365 C.ar    1  UNL1        0.0061
     16 C         139.2678  136.6269  152.9352 C.ar    1  UNL1        0.0173
     17 C         139.2970  136.9069  154.4086 C.ar    1  UNL1        0.0861
     18 N         138.0959  137.5004  155.0831 N.ar    1  UNL1       -0.2137
     19 C         135.1634  139.7593  154.5449 C.3     1  UNL1        0.2542
     20 O         135.6645  138.4075  154.9589 O.3     1  UNL1       -0.4561
     21 N         144.5043  139.2042  161.7894 N.am    1  UNL1       -0.3018
     22 C         143.7409  139.7489  162.9600 C.2     1  UNL1        0.2426
     23 O         142.2429  139.8114  162.9150 O.2     1  UNL1       -0.2733
     24 H         145.4875  139.1631  161.8189 H       1  UNL1        0.1495
     25 C         144.4755  140.2311  164.1757 C.3     1  UNL1        0.1759
     26 N         143.8777  140.0401  165.5381 N.am    1  UNL1       -0.2931
     27 C         143.0362  141.1226  166.1464 C.2     1  UNL1        0.2462
     28 O         142.7925  142.3962  165.3922 O.2     1  UNL1       -0.2701
     29 H         144.0376  139.2042  166.0330 H       1  UNL1        0.1502
     30 C         142.4384  140.9316  167.5087 C.ar    1  UNL1        0.0533
     31 C         142.6256  139.6322  168.2344 C.ar    1  UNL1        0.0045
     32 C         142.0277  139.4413  169.5968 C.ar    1  UNL1        0.0001
     33 C         141.2427  140.5496  170.2335 C.ar    1  UNL1        0.0039
     34 C         141.0556  141.8490  169.5078 C.ar    1  UNL1        0.0716
     35 C         141.6534  142.0399  168.1454 C.ar    1  UNL1        0.0084
     36 C         140.2706  142.9573  170.1445 C.3     1  UNL1        0.4186
     37 F         139.4856  144.0656  170.7813 F       1  UNL1       -0.1659
     38 F         140.1086  143.6122  168.8048 F       1  UNL1       -0.1659
     39 F         140.4326  142.3024  171.4843 F       1  UNL1       -0.1659
@<TRIPOS>BOND
     1    19    20    1
     2    20    13    1
     3    13    14   ar
     4    14    15   ar
     5    15    16   ar
     6    16    17   ar
     7    17     5    1
     8     5     6    1
     9     5     7    1
    10     7     8    1
    11     8     9    1
    12     9     1    1
    13     1     2    1
    14     2     3    1
    15     3    21    1
    16    21    22   am
    17    22    23    2
    18    22    25    1
    19    25    26    1
    20    26    27   am
    21    27    28    2
    22    27    30    1
    23    30    31   ar
    24    31    32   ar
    25    32    33   ar
    26    33    34   ar
    27    34    36    1
    28    36    37    1
    29    36    38    1
    30    36    39    1
    31    34    35   ar
    32     3     4    1
    33     9    10    1
    34    10    11    1
    35    17    18   ar
    36    18    13   ar
    37    11     5    1
    38     4     1    1
    39    35    30   ar
    40     6    12    1
    41    21    24    1
    42    26    29    1
@<TRIPOS>MOLECULE
*****
 39 42 0 0 0
SMALL
GASTEIGER

@<TRIPOS>ATOM
      1 N         140.1349  139.4940  162.5801 N.3     1  UNL1       -0.2711
      2 C         140.0566  138.4613  161.4951 C.3     1  UNL1        0.0933
      3 C         140.5368  139.4731  160.4973 C.3     1  UNL1        0.1035
      4 C         140.6151  140.5058  161.5824 C.3     1  UNL1        0.0933
      5 C         139.2825  139.5385  166.9984 C.3     1  UNL1        0.1232
      6 O         138.2394  139.0761  167.9721 O.3     1  UNL1       -0.3812
      7 C         140.5366  140.1694  166.4702 C.3     1  UNL1        0.0341
      8 C         140.8208  140.1546  164.9974 C.3     1  UNL1        0.0188
      9 C         139.8507  139.5088  164.0529 C.3     1  UNL1        0.0578
     10 C         138.5966  138.8779  164.5811 C.3     1  UNL1        0.0188
     11 C         138.3124  138.8928  166.0538 C.3     1  UNL1        0.0341
     12 H         138.5029  139.3265  168.8714 H       1  UNL1        0.2107
     13 C         141.9791  140.7266  169.6567 C.ar    1  UNL1        0.2247
     14 C         141.1057  140.9939  170.8464 C.ar    1  UNL1        0.0577
     15 C         139.6245  140.7761  170.7536 C.ar    1  UNL1        0.0061
     16 C         139.0168  140.2910  169.4709 C.ar    1  UNL1        0.0173
     17 C         139.8902  140.0237  168.2811 C.ar    1  UNL1        0.0861
     18 N         141.3714  140.2415  168.3740 N.ar    1  UNL1       -0.2137
     19 C         144.0111  142.3384  169.8103 C.3     1  UNL1        0.2542
     20 O         143.4603  140.9445  169.7496 O.3     1  UNL1       -0.4561
     21 N         140.8210  139.4582  159.0246 N.am    1  UNL1       -0.3018
     22 C         139.6897  139.5226  158.0418 C.2     1  UNL1        0.2426
     23 O         138.2742  139.6017  158.5316 O.2     1  UNL1       -0.2733
     24 H         141.7501  139.4063  158.7030 H       1  UNL1        0.1495
     25 C         139.9739  139.5077  156.5689 C.3     1  UNL1        0.1759
     26 N         140.7605  138.3806  155.9682 N.am    1  UNL1       -0.2931
     27 C         140.0742  137.0973  155.6047 C.2     1  UNL1        0.2462
     28 O         138.6013  136.9412  155.8421 O.2     1  UNL1       -0.2701
     29 H         141.7271  138.4831  155.8124 H       1  UNL1        0.1502
     30 C         140.8607  135.9702  155.0040 C.ar    1  UNL1        0.0533
     31 C         140.5782  135.5231  153.6003 C.ar    1  UNL1        0.0045
     32 C         141.3648  134.3960  152.9996 C.ar    1  UNL1        0.0001
     33 C         142.4338  133.7159  153.8026 C.ar    1  UNL1        0.0039
     34 C         142.7163  134.1630  155.2063 C.ar    1  UNL1        0.0716
     35 C         141.9297  135.2901  155.8069 C.ar    1  UNL1        0.0084
     36 C         143.7853  133.4829  156.0092 C.3     1  UNL1        0.4186
     37 F         144.8543  132.8029  156.8121 F       1  UNL1       -0.1659
     38 F         143.7778  132.3334  155.0456 F       1  UNL1       -0.1659
     39 F         143.7928  134.6325  156.9728 F       1  UNL1       -0.1659
@<TRIPOS>BOND
     1    19    20    1
     2    20    13    1
     3    13    14   ar
     4    14    15   ar
     5    15    16   ar
     6    16    17   ar
     7    17     5    1
     8     5     6    1
     9     5     7    1
    10     7     8    1
    11     8     9    1
    12     9     1    1
    13     1     2    1
    14     2     3    1
    15     3    21    1
    16    21    22   am
    17    22    23    2
    18    22    25    1
    19    25    26    1
    20    26    27   am
    21    27    28    2
    22    27    30    1
    23    30    31   ar
    24    31    32   ar
    25    32    33   ar
    26    33    34   ar
    27    34    36    1
    28    36    37    1
    29    36    38    1
    30    36    39    1
    31    34    35   ar
    32     3     4    1
    33     9    10    1
    34    10    11    1
    35    17    18   ar
    36    18    13   ar
    37    11     5    1
    38     4     1    1
    39    35    30   ar
    40     6    12    1
    41    21    24    1
    42    26    29    1
