@<TRIPOS>MOLECULE
*****
 34 37 0 0 0
SMALL
GASTEIGER

@<TRIPOS>ATOM
      1 C         140.2287  139.4461  164.8425 C.ar    1  UNL1        0.0522
      2 C         140.9280  140.0696  163.6711 C.ar    1  UNL1        0.0167
      3 C         140.7068  139.5273  162.2901 C.ar    1  UNL1        0.0505
      4 C         139.7863  138.3616  162.0807 C.ar    1  UNL1        0.0170
      5 C         139.0870  137.7382  163.2522 C.ar    1  UNL1        0.0307
      6 C         139.3082  138.2805  164.6331 C.ar    1  UNL1        0.1401
      7 F         138.6089  137.6571  165.8046 F       1  UNL1       -0.2044
      8 C         139.1721  140.6902  165.8697 C.3     1  UNL1        0.0601
      9 C         140.4498  139.9884  166.2236 C.3     1  UNL1        0.2163
     10 C         140.2272  140.7745  167.4816 C.3     1  UNL1        0.1614
     11 N         141.2054  140.6703  168.6140 N.ar    1  UNL1       -0.2929
     12 C         141.2492  141.3198  169.9653 C.ar    1  UNL1        0.1503
     13 C         142.4771  140.8311  170.6748 C.ar    1  UNL1        0.1285
     14 N         143.1922  139.8796  169.7620 N.ar    1  UNL1       -0.2180
     15 C         142.4062  139.7803  168.4882 C.ar    1  UNL1        0.2279
     16 C         142.6288  138.9943  167.2302 C.2     1  UNL1        0.3476
     17 N         143.8296  138.1042  167.1045 N.pl3   1  UNL1       -0.2439
     18 N         141.6506  139.0984  166.0979 N.2     1  UNL1       -0.0653
     19 H         144.4717  138.0359  167.8477 H       1  UNL1        0.2885
     20 H         143.9757  137.5883  166.2788 H       1  UNL1        0.2885
     21 C         140.2420  142.2880  170.5114 C.1     1  UNL1        0.1196
     22 N         139.2348  143.2562  171.0574 N.1     1  UNL1       -0.1893
     23 N         141.4061  140.1507  161.1187 N.am    1  UNL1       -0.2791
     24 C         142.8361  139.8038  160.8273 C.2     1  UNL1        0.2672
     25 O         143.5667  138.8335  161.7073 O.2     1  UNL1       -0.2682
     26 H         140.9266  140.7876  160.5411 H       1  UNL1        0.1552
     27 C         143.5354  140.4273  159.6558 C.ar    1  UNL1        0.1348
     28 C         144.0366  141.8382  159.7457 C.ar    1  UNL1        0.0245
     29 C         144.7359  142.4616  158.5742 C.ar    1  UNL1        0.0135
     30 C         144.9339  141.6742  157.3130 C.ar    1  UNL1        0.0876
     31 C         144.4326  140.2633  157.2232 C.ar    1  UNL1        0.1092
     32 N         143.7333  139.6398  158.3946 N.ar    1  UNL1       -0.2385
     33 C         145.6332  142.2977  156.1415 C.1     1  UNL1        0.1020
     34 N         146.3325  142.9212  154.9701 N.1     1  UNL1       -0.1908
@<TRIPOS>BOND
     1     9     8    1
     2     9     1    1
     3     1     2   ar
     4     2     3   ar
     5     3    23    1
     6    23    24   am
     7    24    25    2
     8    24    27    1
     9    27    28   ar
    10    28    29   ar
    11    29    30   ar
    12    30    33    1
    13    33    34    3
    14    30    31   ar
    15    31    32   ar
    16     3     4   ar
    17     4     5   ar
    18     5     6   ar
    19     6     7    1
    20     9    10    1
    21    10    11    1
    22    11    12   ar
    23    12    21    1
    24    21    22    3
    25    12    13   ar
    26    13    14   ar
    27    14    15   ar
    28    15    16    1
    29    16    17    1
    30    16    18    2
    31    18     9    1
    32     6     1   ar
    33    15    11   ar
    34    32    27   ar
    35    23    26    1
    36    17    19    1
    37    17    20    1
@<TRIPOS>MOLECULE
*****
 34 37 0 0 0
SMALL
GASTEIGER

@<TRIPOS>ATOM
      1 C         139.3785  142.1996  164.4133 C.ar    1  UNL1        0.0522
      2 C         140.0623  141.4459  163.3114 C.ar    1  UNL1        0.0167
      3 C         139.5640  141.5625  161.9014 C.ar    1  UNL1        0.0505
      4 C         138.3818  142.4329  161.5934 C.ar    1  UNL1        0.0170
      5 C         137.6979  143.1866  162.6953 C.ar    1  UNL1        0.0307
      6 C         138.1964  143.0699  164.1053 C.ar    1  UNL1        0.1401
      7 F         137.5125  143.8237  165.2073 F       1  UNL1       -0.2044
      8 C         140.5861  143.3349  165.3991 C.3     1  UNL1        0.0601
      9 C         139.8768  142.0830  165.8234 C.3     1  UNL1        0.2163
     10 C         140.6215  142.4012  167.0860 C.3     1  UNL1        0.1614
     11 N         140.4838  141.5080  168.2832 N.ar    1  UNL1       -0.2929
     12 C         141.0898  141.5667  169.6541 C.ar    1  UNL1        0.1503
     13 C         140.5820  140.3915  170.4359 C.ar    1  UNL1        0.1285
     14 N         139.6622  139.6067  169.5482 N.ar    1  UNL1       -0.2180
     15 C         139.6015  140.2967  168.2178 C.ar    1  UNL1        0.2279
     16 C         138.8569  139.9786  166.9551 C.2     1  UNL1        0.3476
     17 N         137.9746  138.7672  166.8897 N.pl3   1  UNL1       -0.2439
     18 N         138.9946  140.8717  165.7579 N.2     1  UNL1       -0.0653
     19 H         137.8843  138.1810  167.6754 H       1  UNL1        0.2885
     20 H         137.4859  138.5584  166.0609 H       1  UNL1        0.2885
     21 C         142.0372  142.6161  170.1552 C.1     1  UNL1        0.1196
     22 N         142.9846  143.6656  170.6563 N.1     1  UNL1       -0.1893
     23 N         140.2478  140.8088  160.7995 N.am    1  UNL1       -0.2791
     24 C         139.6924  139.4964  160.3314 C.2     1  UNL1        0.2672
     25 O         138.4529  138.9378  160.9652 O.2     1  UNL1       -0.2682
     26 H         141.0613  141.1754  160.3835 H       1  UNL1        0.1552
     27 C         140.3763  138.7427  159.2295 C.ar    1  UNL1        0.1348
     28 C         141.8401  138.4313  159.3301 C.ar    1  UNL1        0.0245
     29 C         142.5240  137.6776  158.2282 C.ar    1  UNL1        0.0135
     30 C         141.7440  137.2353  157.0257 C.ar    1  UNL1        0.0876
     31 C         140.2802  137.5467  156.9251 C.ar    1  UNL1        0.1092
     32 N         139.5962  138.3004  158.0270 N.ar    1  UNL1       -0.2385
     33 C         142.4280  136.4816  155.9238 C.1     1  UNL1        0.1020
     34 N         143.1119  135.7279  154.8219 N.1     1  UNL1       -0.1908
@<TRIPOS>BOND
     1     9     8    1
     2     9     1    1
     3     1     2   ar
     4     2     3   ar
     5     3    23    1
     6    23    24   am
     7    24    25    2
     8    24    27    1
     9    27    28   ar
    10    28    29   ar
    11    29    30   ar
    12    30    33    1
    13    33    34    3
    14    30    31   ar
    15    31    32   ar
    16     3     4   ar
    17     4     5   ar
    18     5     6   ar
    19     6     7    1
    20     9    10    1
    21    10    11    1
    22    11    12   ar
    23    12    21    1
    24    21    22    3
    25    12    13   ar
    26    13    14   ar
    27    14    15   ar
    28    15    16    1
    29    16    17    1
    30    16    18    2
    31    18     9    1
    32     6     1   ar
    33    15    11   ar
    34    32    27   ar
    35    23    26    1
    36    17    19    1
    37    17    20    1
@<TRIPOS>MOLECULE
*****
 34 37 0 0 0
SMALL
GASTEIGER

@<TRIPOS>ATOM
      1 C         139.7863  139.8023  164.5674 C.ar    1  UNL1        0.0522
      2 C         140.0669  140.7268  163.4200 C.ar    1  UNL1        0.0167
      3 C         139.7449  140.3015  162.0180 C.ar    1  UNL1        0.0505
      4 C         139.1423  138.9516  161.7636 C.ar    1  UNL1        0.0170
      5 C         138.8617  138.0271  162.9110 C.ar    1  UNL1        0.0307
      6 C         139.1838  138.4525  164.3129 C.ar    1  UNL1        0.1401
      7 F         138.9032  137.5280  165.4604 F       1  UNL1       -0.2044
      8 C         138.8172  140.9632  165.7641 C.3     1  UNL1        0.0601
      9 C         140.1084  140.2277  165.9694 C.3     1  UNL1        0.2163
     10 C         139.9819  140.9085  167.3000 C.3     1  UNL1        0.1614
     11 N         141.0348  140.7060  168.3491 N.ar    1  UNL1       -0.2929
     12 C         141.1790  141.2416  169.7427 C.ar    1  UNL1        0.1503
     13 C         142.4475  140.6894  170.3225 C.ar    1  UNL1        0.1285
     14 N         143.0872  139.8126  169.2871 N.ar    1  UNL1       -0.2180
     15 C         142.2140  139.8229  168.0674 C.ar    1  UNL1        0.2279
     16 C         142.3404  139.1421  166.7368 C.2     1  UNL1        0.3476
     17 N         143.5197  138.2589  166.4552 N.pl3   1  UNL1       -0.2439
     18 N         141.2876  139.3445  165.6878 N.2     1  UNL1       -0.0653
     19 H         144.2108  138.1260  167.1437 H       1  UNL1        0.2885
     20 H         143.6027  137.8121  165.5819 H       1  UNL1        0.2885
     21 C         140.2227  142.1669  170.4351 C.1     1  UNL1        0.1196
     22 N         139.2665  143.0922  171.1275 N.1     1  UNL1       -0.1893
     23 N         140.0254  141.2260  160.8707 N.am    1  UNL1       -0.2791
     24 C         139.0487  142.3108  160.5253 C.2     1  UNL1        0.2672
     25 O         137.7913  142.4710  161.3273 O.2     1  UNL1       -0.2682
     26 H         140.8507  141.1209  160.3443 H       1  UNL1        0.1552
     27 C         139.3293  143.2353  159.3779 C.ar    1  UNL1        0.1348
     28 C         139.0139  142.8072  157.9754 C.ar    1  UNL1        0.0245
     29 C         139.2945  143.7317  156.8280 C.ar    1  UNL1        0.0135
     30 C         139.8906  145.0843  157.0831 C.ar    1  UNL1        0.0876
     31 C         140.2060  145.5124  158.4857 C.ar    1  UNL1        0.1092
     32 N         139.9254  144.5879  159.6331 N.ar    1  UNL1       -0.2385
     33 C         140.1712  146.0089  155.9357 C.1     1  UNL1        0.1020
     34 N         140.4518  146.9333  154.7883 N.1     1  UNL1       -0.1908
@<TRIPOS>BOND
     1     9     8    1
     2     9     1    1
     3     1     2   ar
     4     2     3   ar
     5     3    23    1
     6    23    24   am
     7    24    25    2
     8    24    27    1
     9    27    28   ar
    10    28    29   ar
    11    29    30   ar
    12    30    33    1
    13    33    34    3
    14    30    31   ar
    15    31    32   ar
    16     3     4   ar
    17     4     5   ar
    18     5     6   ar
    19     6     7    1
    20     9    10    1
    21    10    11    1
    22    11    12   ar
    23    12    21    1
    24    21    22    3
    25    12    13   ar
    26    13    14   ar
    27    14    15   ar
    28    15    16    1
    29    16    17    1
    30    16    18    2
    31    18     9    1
    32     6     1   ar
    33    15    11   ar
    34    32    27   ar
    35    23    26    1
    36    17    19    1
    37    17    20    1
@<TRIPOS>MOLECULE
*****
 34 37 0 0 0
SMALL
GASTEIGER

@<TRIPOS>ATOM
      1 C         142.4466  140.4894  164.6328 C.ar    1  UNL1        0.0522
      2 C         141.8978  141.3140  163.5064 C.ar    1  UNL1        0.0167
      3 C         142.4771  141.1822  162.1290 C.ar    1  UNL1        0.0505
      4 C         143.6051  140.2258  161.8781 C.ar    1  UNL1        0.0170
      5 C         144.1539  139.4012  163.0046 C.ar    1  UNL1        0.0307
      6 C         143.5745  139.5331  164.3820 C.ar    1  UNL1        0.1401
      7 F         144.1233  138.7085  165.5085 F       1  UNL1       -0.2044
      8 C         143.1304  141.4120  166.1820 C.3     1  UNL1        0.0601
      9 C         141.8673  140.6212  166.0102 C.3     1  UNL1        0.2163
     10 C         141.7268  141.0276  167.4473 C.3     1  UNL1        0.1614
     11 N         140.5244  140.5975  168.2341 N.ar    1  UNL1       -0.2929
     12 C         140.1151  140.8430  169.6562 C.ar    1  UNL1        0.1503
     13 C         138.8003  140.1581  169.8849 C.ar    1  UNL1        0.1285
     14 N         138.3970  139.4894  168.6042 N.ar    1  UNL1       -0.2180
     15 C         139.4625  139.7609  167.5840 C.ar    1  UNL1        0.2279
     16 C         139.6031  139.3545  166.1469 C.2     1  UNL1        0.3476
     17 N         138.5413  138.5180  165.4968 N.pl3   1  UNL1       -0.2439
     18 N         140.8055  139.7847  165.3601 N.2     1  UNL1       -0.0653
     19 H         137.7521  138.2356  166.0132 H       1  UNL1        0.2885
     20 H         138.6336  138.2512  164.5536 H       1  UNL1        0.2885
     21 C         140.8854  141.6343  170.6713 C.1     1  UNL1        0.1196
     22 N         141.6556  142.4257  171.6864 N.1     1  UNL1       -0.1893
     23 N         141.9283  142.0068  161.0026 N.am    1  UNL1       -0.2791
     24 C         142.5279  143.3463  160.6922 C.2     1  UNL1        0.2672
     25 O         143.6763  143.8612  161.5083 O.2     1  UNL1       -0.2682
     26 H         141.1746  141.6689  160.4669 H       1  UNL1        0.1552
     27 C         141.9790  144.1709  159.5657 C.ar    1  UNL1        0.1348
     28 C         140.6351  144.8233  159.6995 C.ar    1  UNL1        0.0245
     29 C         140.0863  145.6479  158.5730 C.ar    1  UNL1        0.0135
     30 C         140.8815  145.8200  157.3129 C.ar    1  UNL1        0.0876
     31 C         142.2255  145.1675  157.1792 C.ar    1  UNL1        0.1092
     32 N         142.7743  144.3430  158.3056 N.ar    1  UNL1       -0.2385
     33 C         140.3326  146.6446  156.1864 C.1     1  UNL1        0.1020
     34 N         139.7839  147.4691  155.0600 N.1     1  UNL1       -0.1908
@<TRIPOS>BOND
     1     9     8    1
     2     9     1    1
     3     1     2   ar
     4     2     3   ar
     5     3    23    1
     6    23    24   am
     7    24    25    2
     8    24    27    1
     9    27    28   ar
    10    28    29   ar
    11    29    30   ar
    12    30    33    1
    13    33    34    3
    14    30    31   ar
    15    31    32   ar
    16     3     4   ar
    17     4     5   ar
    18     5     6   ar
    19     6     7    1
    20     9    10    1
    21    10    11    1
    22    11    12   ar
    23    12    21    1
    24    21    22    3
    25    12    13   ar
    26    13    14   ar
    27    14    15   ar
    28    15    16    1
    29    16    17    1
    30    16    18    2
    31    18     9    1
    32     6     1   ar
    33    15    11   ar
    34    32    27   ar
    35    23    26    1
    36    17    19    1
    37    17    20    1
@<TRIPOS>MOLECULE
*****
 34 37 0 0 0
SMALL
GASTEIGER

@<TRIPOS>ATOM
      1 C         139.6277  142.5444  164.1237 C.ar    1  UNL1        0.0522
      2 C         140.5828  142.2294  163.0108 C.ar    1  UNL1        0.0167
      3 C         140.1656  142.4327  161.5843 C.ar    1  UNL1        0.0505
      4 C         138.7933  142.9510  161.2709 C.ar    1  UNL1        0.0170
      5 C         137.8382  143.2660  162.3839 C.ar    1  UNL1        0.0307
      6 C         138.2555  143.0627  163.8103 C.ar    1  UNL1        0.1401
      7 F         137.3005  143.3777  164.9233 F       1  UNL1       -0.2044
      8 C         140.7800  143.6120  165.2424 C.3     1  UNL1        0.0601
      9 C         140.0449  142.3411  165.5502 C.3     1  UNL1        0.2163
     10 C         140.7175  142.5792  166.8697 C.3     1  UNL1        0.1614
     11 N         140.5100  141.6171  168.0016 N.ar    1  UNL1       -0.2929
     12 C         141.0372  141.5905  169.4056 C.ar    1  UNL1        0.1503
     13 C         140.4831  140.3738  170.0858 C.ar    1  UNL1        0.1285
     14 N         139.6134  139.6485  169.1021 N.ar    1  UNL1       -0.2180
     15 C         139.6300  140.4169  167.8140 C.ar    1  UNL1        0.2279
     16 C         138.9575  140.1788  166.4945 C.2     1  UNL1        0.3476
     17 N         138.0776  138.9786  166.3069 N.pl3   1  UNL1       -0.2439
     18 N         139.1650  141.1410  165.3626 N.2     1  UNL1       -0.0653
     19 H         137.9414  138.3471  167.0498 H       1  UNL1        0.2885
     20 H         137.6362  138.8224  165.4409 H       1  UNL1        0.2885
     21 C         141.9571  142.6028  170.0214 C.1     1  UNL1        0.1196
     22 N         142.8769  143.6151  170.6371 N.1     1  UNL1       -0.1893
     23 N         141.1207  142.1177  160.4715 N.am    1  UNL1       -0.2791
     24 C         142.1005  143.1545  160.0079 C.2     1  UNL1        0.2672
     25 O         142.1253  144.5064  160.6573 O.2     1  UNL1       -0.2682
     26 H         141.1044  141.2303  160.0453 H       1  UNL1        0.1552
     27 C         143.0556  142.8394  158.8950 C.ar    1  UNL1        0.1348
     28 C         142.5392  142.6136  157.5050 C.ar    1  UNL1        0.0245
     29 C         143.4943  142.2985  156.3920 C.ar    1  UNL1        0.0135
     30 C         144.9657  142.2093  156.6692 C.ar    1  UNL1        0.0876
     31 C         145.4821  142.4351  158.0593 C.ar    1  UNL1        0.1092
     32 N         144.5271  142.7502  159.1722 N.ar    1  UNL1       -0.2385
     33 C         145.9208  141.8942  155.5563 C.1     1  UNL1        0.1020
     34 N         146.8758  141.5791  154.4434 N.1     1  UNL1       -0.1908
@<TRIPOS>BOND
     1     9     8    1
     2     9     1    1
     3     1     2   ar
     4     2     3   ar
     5     3    23    1
     6    23    24   am
     7    24    25    2
     8    24    27    1
     9    27    28   ar
    10    28    29   ar
    11    29    30   ar
    12    30    33    1
    13    33    34    3
    14    30    31   ar
    15    31    32   ar
    16     3     4   ar
    17     4     5   ar
    18     5     6   ar
    19     6     7    1
    20     9    10    1
    21    10    11    1
    22    11    12   ar
    23    12    21    1
    24    21    22    3
    25    12    13   ar
    26    13    14   ar
    27    14    15   ar
    28    15    16    1
    29    16    17    1
    30    16    18    2
    31    18     9    1
    32     6     1   ar
    33    15    11   ar
    34    32    27   ar
    35    23    26    1
    36    17    19    1
    37    17    20    1
@<TRIPOS>MOLECULE
*****
 34 37 0 0 0
SMALL
GASTEIGER

@<TRIPOS>ATOM
      1 C         141.4799  139.6743  164.7809 C.ar    1  UNL1        0.0522
      2 C         140.9585  140.4242  163.5911 C.ar    1  UNL1        0.0167
      3 C         141.0302  139.8075  162.2255 C.ar    1  UNL1        0.0505
      4 C         141.6233  138.4410  162.0500 C.ar    1  UNL1        0.0170
      5 C         142.1447  137.6911  163.2399 C.ar    1  UNL1        0.0307
      6 C         142.0729  138.3078  164.6054 C.ar    1  UNL1        0.1401
      7 F         142.5943  137.5579  165.7953 F       1  UNL1       -0.2044
      8 C         142.7123  140.8603  165.6717 C.3     1  UNL1        0.0601
      9 C         141.4082  140.2909  166.1465 C.3     1  UNL1        0.2163
     10 C         141.7895  141.1053  167.3471 C.3     1  UNL1        0.1614
     11 N         140.8916  141.1362  168.5483 N.ar    1  UNL1       -0.2929
     12 C         141.0032  141.8424  169.8669 C.ar    1  UNL1        0.1503
     13 C         139.7930  141.4954  170.6824 C.ar    1  UNL1        0.1285
     14 N         138.9335  140.5747  169.8678 N.ar    1  UNL1       -0.2180
     15 C         139.6125  140.3527  168.5488 C.ar    1  UNL1        0.2279
     16 C         139.2312  139.5384  167.3482 C.2     1  UNL1        0.3476
     17 N         137.9521  138.7549  167.3488 N.pl3   1  UNL1       -0.2439
     18 N         140.1292  139.5075  166.1471 N.2     1  UNL1       -0.0653
     19 H         137.3628  138.7751  168.1371 H       1  UNL1        0.2885
     20 H         137.7019  138.2204  166.5608 H       1  UNL1        0.2885
     21 C         142.1275  142.7384  170.2949 C.1     1  UNL1        0.1196
     22 N         143.2519  143.6343  170.7229 N.1     1  UNL1       -0.1893
     23 N         140.5088  140.5574  161.0357 N.am    1  UNL1       -0.2791
     24 C         139.2047  140.1592  160.4106 C.2     1  UNL1        0.2672
     25 O         138.4220  139.0110  160.9753 O.2     1  UNL1       -0.2682
     26 H         141.0225  141.3110  160.6650 H       1  UNL1        0.1552
     27 C         138.6833  140.9092  159.2207 C.ar    1  UNL1        0.1348
     28 C         139.1491  142.3098  158.9540 C.ar    1  UNL1        0.0245
     29 C         138.6278  143.0597  157.7641 C.ar    1  UNL1        0.0135
     30 C         137.6406  142.4090  156.8410 C.ar    1  UNL1        0.0876
     31 C         137.1749  141.0083  157.1078 C.ar    1  UNL1        0.1092
     32 N         137.6962  140.2584  158.2976 N.ar    1  UNL1       -0.2385
     33 C         137.1193  143.1590  155.6511 C.1     1  UNL1        0.1020
     34 N         136.5979  143.9089  154.4613 N.1     1  UNL1       -0.1908
@<TRIPOS>BOND
     1     9     8    1
     2     9     1    1
     3     1     2   ar
     4     2     3   ar
     5     3    23    1
     6    23    24   am
     7    24    25    2
     8    24    27    1
     9    27    28   ar
    10    28    29   ar
    11    29    30   ar
    12    30    33    1
    13    33    34    3
    14    30    31   ar
    15    31    32   ar
    16     3     4   ar
    17     4     5   ar
    18     5     6   ar
    19     6     7    1
    20     9    10    1
    21    10    11    1
    22    11    12   ar
    23    12    21    1
    24    21    22    3
    25    12    13   ar
    26    13    14   ar
    27    14    15   ar
    28    15    16    1
    29    16    17    1
    30    16    18    2
    31    18     9    1
    32     6     1   ar
    33    15    11   ar
    34    32    27   ar
    35    23    26    1
    36    17    19    1
    37    17    20    1
@<TRIPOS>MOLECULE
*****
 34 37 0 0 0
SMALL
GASTEIGER

@<TRIPOS>ATOM
      1 C         139.2271  141.4739  163.9204 C.ar    1  UNL1        0.0522
      2 C         139.5742  140.4414  162.8892 C.ar    1  UNL1        0.0167
      3 C         139.0806  140.5925  161.4807 C.ar    1  UNL1        0.0505
      4 C         138.2399  141.7762  161.1037 C.ar    1  UNL1        0.0170
      5 C         137.8928  142.8087  162.1349 C.ar    1  UNL1        0.0307
      6 C         138.3865  142.6575  163.5433 C.ar    1  UNL1        0.1401
      7 F         138.0394  143.6900  164.5746 F       1  UNL1       -0.2044
      8 C         138.4139  140.5934  165.4311 C.3     1  UNL1        0.0601
      9 C         139.7207  141.3227  165.3288 C.3     1  UNL1        0.2163
     10 C         139.7604  140.9183  166.7728 C.3     1  UNL1        0.1614
     11 N         140.9354  141.2956  167.6252 N.ar    1  UNL1       -0.2929
     12 C         141.2516  141.0392  169.0689 C.ar    1  UNL1        0.1503
     13 C         142.5824  141.6625  169.3698 C.ar    1  UNL1        0.1285
     14 N         143.0887  142.3042  168.1121 N.ar    1  UNL1       -0.2180
     15 C         142.0708  142.0775  167.0338 C.ar    1  UNL1        0.2279
     16 C         142.0311  142.4819  165.5900 C.2     1  UNL1        0.3476
     17 N         143.1664  143.2637  164.9986 N.pl3   1  UNL1       -0.2439
     18 N         140.8560  142.1045  164.7375 N.2     1  UNL1       -0.0653
     19 H         143.9377  143.5114  165.5581 H       1  UNL1        0.2885
     20 H         143.1403  143.5292  164.0509 H       1  UNL1        0.2885
     21 C         140.3885  140.2908  170.0411 C.1     1  UNL1        0.1196
     22 N         139.5255  139.5424  171.0132 N.1     1  UNL1       -0.1893
     23 N         139.4277  139.5601  160.4495 N.am    1  UNL1       -0.2791
     24 C         140.6474  139.7349  159.5940 C.2     1  UNL1        0.2672
     25 O         141.5199  140.9423  159.7696 O.2     1  UNL1       -0.2682
     26 H         138.8551  138.7676  160.3342 H       1  UNL1        0.1552
     27 C         140.9945  138.7023  158.5627 C.ar    1  UNL1        0.1348
     28 C         142.3670  138.0979  158.5390 C.ar    1  UNL1        0.0245
     29 C         142.7141  137.0654  157.5078 C.ar    1  UNL1        0.0135
     30 C         141.6886  136.6373  156.5003 C.ar    1  UNL1        0.0876
     31 C         140.3160  137.2418  156.5241 C.ar    1  UNL1        0.1092
     32 N         139.9688  138.2743  157.5553 N.ar    1  UNL1       -0.2385
     33 C         142.0357  135.6047  155.4691 C.1     1  UNL1        0.1020
     34 N         142.3827  134.5722  154.4379 N.1     1  UNL1       -0.1908
@<TRIPOS>BOND
     1     9     8    1
     2     9     1    1
     3     1     2   ar
     4     2     3   ar
     5     3    23    1
     6    23    24   am
     7    24    25    2
     8    24    27    1
     9    27    28   ar
    10    28    29   ar
    11    29    30   ar
    12    30    33    1
    13    33    34    3
    14    30    31   ar
    15    31    32   ar
    16     3     4   ar
    17     4     5   ar
    18     5     6   ar
    19     6     7    1
    20     9    10    1
    21    10    11    1
    22    11    12   ar
    23    12    21    1
    24    21    22    3
    25    12    13   ar
    26    13    14   ar
    27    14    15   ar
    28    15    16    1
    29    16    17    1
    30    16    18    2
    31    18     9    1
    32     6     1   ar
    33    15    11   ar
    34    32    27   ar
    35    23    26    1
    36    17    19    1
    37    17    20    1
@<TRIPOS>MOLECULE
*****
 34 37 0 0 0
SMALL
GASTEIGER

@<TRIPOS>ATOM
      1 C         141.5793  139.9693  164.6744 C.ar    1  UNL1        0.0522
      2 C         141.1001  140.8285  163.5421 C.ar    1  UNL1        0.0167
      3 C         141.6323  140.6091  162.1569 C.ar    1  UNL1        0.0505
      4 C         142.6436  139.5305  161.9041 C.ar    1  UNL1        0.0170
      5 C         143.1228  138.6713  163.0365 C.ar    1  UNL1        0.0307
      6 C         142.5906  138.8908  164.4217 C.ar    1  UNL1        0.1401
      7 F         143.0697  138.0315  165.5540 F       1  UNL1       -0.2044
      8 C         140.0474  139.1926  165.5513 C.3     1  UNL1        0.0601
      9 C         141.0472  140.1887  166.0597 C.3     1  UNL1        0.2163
     10 C         140.1678  140.0620  167.2683 C.3     1  UNL1        0.1614
     11 N         140.4729  140.8553  168.5042 N.ar    1  UNL1       -0.2929
     12 C         139.7916  140.9371  169.8380 C.ar    1  UNL1        0.1503
     13 C         140.5551  141.9076  170.6897 C.ar    1  UNL1        0.1285
     14 N         141.7082  142.4255  169.8823 N.ar    1  UNL1       -0.2180
     15 C         141.6575  141.7752  168.5315 C.ar    1  UNL1        0.2279
     16 C         142.5368  141.9018  167.3229 C.2     1  UNL1        0.3476
     17 N         143.7213  142.8217  167.3502 N.pl3   1  UNL1       -0.2439
     18 N         142.2316  141.1085  166.0870 N.2     1  UNL1       -0.0653
     19 H         143.9216  143.3423  168.1614 H       1  UNL1        0.2885
     20 H         144.2985  142.9047  166.5570 H       1  UNL1        0.2885
     21 C         138.5626  140.1812  170.2481 C.1     1  UNL1        0.1196
     22 N         137.3337  139.4253  170.6583 N.1     1  UNL1       -0.1893
     23 N         141.1531  141.4683  161.0246 N.am    1  UNL1       -0.2791
     24 C         141.9031  142.7150  160.6596 C.2     1  UNL1        0.2672
     25 O         143.1323  143.1025  161.4269 O.2     1  UNL1       -0.2682
     26 H         140.3463  141.2139  160.5210 H       1  UNL1        0.1552
     27 C         141.4239  143.5742  159.5273 C.ar    1  UNL1        0.1348
     28 C         140.1832  143.1976  158.7732 C.ar    1  UNL1        0.0245
     29 C         139.7039  144.0568  157.6408 C.ar    1  UNL1        0.0135
     30 C         140.4654  145.2926  157.2627 C.ar    1  UNL1        0.0876
     31 C         141.7062  145.6691  158.0169 C.ar    1  UNL1        0.1092
     32 N         142.1855  144.8100  159.1492 N.ar    1  UNL1       -0.2385
     33 C         139.9862  146.1518  156.1303 C.1     1  UNL1        0.1020
     34 N         139.5070  147.0109  154.9980 N.1     1  UNL1       -0.1908
@<TRIPOS>BOND
     1     9     8    1
     2     9     1    1
     3     1     2   ar
     4     2     3   ar
     5     3    23    1
     6    23    24   am
     7    24    25    2
     8    24    27    1
     9    27    28   ar
    10    28    29   ar
    11    29    30   ar
    12    30    33    1
    13    33    34    3
    14    30    31   ar
    15    31    32   ar
    16     3     4   ar
    17     4     5   ar
    18     5     6   ar
    19     6     7    1
    20     9    10    1
    21    10    11    1
    22    11    12   ar
    23    12    21    1
    24    21    22    3
    25    12    13   ar
    26    13    14   ar
    27    14    15   ar
    28    15    16    1
    29    16    17    1
    30    16    18    2
    31    18     9    1
    32     6     1   ar
    33    15    11   ar
    34    32    27   ar
    35    23    26    1
    36    17    19    1
    37    17    20    1
@<TRIPOS>MOLECULE
*****
 34 37 0 0 0
SMALL
GASTEIGER

@<TRIPOS>ATOM
      1 C         142.6884  141.8417  163.8395 C.ar    1  UNL1        0.0522
      2 C         142.1793  142.7440  162.7548 C.ar    1  UNL1        0.0167
      3 C         143.1219  143.2713  161.7139 C.ar    1  UNL1        0.0505
      4 C         144.5736  142.8961  161.7577 C.ar    1  UNL1        0.0170
      5 C         145.0827  141.9938  162.8425 C.ar    1  UNL1        0.0307
      6 C         144.1400  141.4666  163.8834 C.ar    1  UNL1        0.1401
      7 F         144.6490  140.5642  164.9681 F       1  UNL1       -0.2044
      8 C         142.5222  142.2972  165.7060 C.3     1  UNL1        0.0601
      9 C         141.7458  141.3144  164.8805 C.3     1  UNL1        0.2163
     10 C         141.0729  141.1285  166.2082 C.3     1  UNL1        0.1614
     11 N         139.9508  140.1430  166.3488 N.ar    1  UNL1       -0.2929
     12 C         139.1041  139.7469  167.5219 C.ar    1  UNL1        0.1503
     13 C         138.1316  138.7024  167.0598 C.ar    1  UNL1        0.1285
     14 N         138.3774  138.4531  165.6013 N.ar    1  UNL1       -0.2180
     15 C         139.5018  139.3434  165.1618 C.ar    1  UNL1        0.2279
     16 C         140.1747  139.5293  163.8342 C.2     1  UNL1        0.3476
     17 N         139.7256  138.7297  162.6472 N.pl3   1  UNL1       -0.2439
     18 N         141.2967  140.5149  163.6936 N.2     1  UNL1       -0.0653
     19 H         138.9892  138.0829  162.7395 H       1  UNL1        0.2885
     20 H         140.1673  138.8518  161.7759 H       1  UNL1        0.2885
     21 C         139.2109  140.2984  168.9127 C.1     1  UNL1        0.1196
     22 N         139.3178  140.8498  170.3036 N.1     1  UNL1       -0.1893
     23 N         142.6129  144.1736  160.6292 N.am    1  UNL1       -0.2791
     24 C         142.3089  143.6156  159.2704 C.2     1  UNL1        0.2672
     25 O         142.5141  142.1552  158.9963 O.2     1  UNL1       -0.2682
     26 H         142.4782  145.1321  160.8091 H       1  UNL1        0.1552
     27 C         141.7998  144.5180  158.1857 C.ar    1  UNL1        0.1348
     28 C         140.6384  145.4290  158.4517 C.ar    1  UNL1        0.0245
     29 C         140.1293  146.3314  157.3670 C.ar    1  UNL1        0.0135
     30 C         140.7817  146.3227  156.0164 C.ar    1  UNL1        0.0876
     31 C         141.9432  145.4116  155.7504 C.ar    1  UNL1        0.1092
     32 N         142.4523  144.5092  156.8350 N.ar    1  UNL1       -0.2385
     33 C         140.2726  147.2251  154.9316 C.1     1  UNL1        0.1020
     34 N         139.7635  148.1275  153.8470 N.1     1  UNL1       -0.1908
@<TRIPOS>BOND
     1     9     8    1
     2     9     1    1
     3     1     2   ar
     4     2     3   ar
     5     3    23    1
     6    23    24   am
     7    24    25    2
     8    24    27    1
     9    27    28   ar
    10    28    29   ar
    11    29    30   ar
    12    30    33    1
    13    33    34    3
    14    30    31   ar
    15    31    32   ar
    16     3     4   ar
    17     4     5   ar
    18     5     6   ar
    19     6     7    1
    20     9    10    1
    21    10    11    1
    22    11    12   ar
    23    12    21    1
    24    21    22    3
    25    12    13   ar
    26    13    14   ar
    27    14    15   ar
    28    15    16    1
    29    16    17    1
    30    16    18    2
    31    18     9    1
    32     6     1   ar
    33    15    11   ar
    34    32    27   ar
    35    23    26    1
    36    17    19    1
    37    17    20    1
