@<TRIPOS>MOLECULE
*****
 32 35 0 0 0
SMALL
GASTEIGER

@<TRIPOS>ATOM
      1 C         144.0781  138.7224  162.4902 C.3     1  UNL1        0.1169
      2 N         143.2666  139.1743  163.6679 N.pl3   1  UNL1       -0.2584
      3 C         141.9090  138.5503  163.8008 C.3     1  UNL1        0.1216
      4 C         140.8694  138.7883  164.8556 C.ar    1  UNL1       -0.0041
      5 C         139.6450  137.9556  164.6160 C.ar    1  UNL1       -0.0029
      6 C         138.4818  138.0437  165.5590 C.ar    1  UNL1       -0.0003
      7 C         138.5431  138.9645  166.7415 C.ar    1  UNL1       -0.0003
      8 C         139.7675  139.7972  166.9810 C.ar    1  UNL1       -0.0023
      9 C         140.9306  139.7091  166.0381 C.ar    1  UNL1        0.0018
     10 C         142.0466  140.6193  166.4578 C.3     1  UNL1        0.1518
     11 N         143.3769  140.8336  165.7988 N.2     1  UNL1       -0.2172
     12 C         143.9198  140.1904  164.5571 C.2     1  UNL1        0.2843
     13 C         141.7995  141.4214  167.7011 C.ar    1  UNL1        0.0041
     14 C         142.5673  141.1189  168.9538 C.ar    1  UNL1       -0.0021
     15 C         142.3201  141.9210  170.1969 C.ar    1  UNL1       -0.0003
     16 C         141.3054  143.0255  170.1876 C.ar    1  UNL1       -0.0000
     17 C         140.5376  143.3280  168.9349 C.ar    1  UNL1       -0.0003
     18 C         140.7847  142.5260  167.6917 C.ar    1  UNL1       -0.0021
     19 O         145.2983  140.6203  164.1510 O.2     1  UNL1       -0.4449
     20 C         145.4872  141.8736  163.3488 C.3     1  UNL1        0.2350
     21 C         144.3544  142.8450  163.1973 C.ar    1  UNL1        0.0213
     22 C         144.1891  143.9639  164.1826 C.ar    1  UNL1        0.0006
     23 C         143.0562  144.9354  164.0311 C.ar    1  UNL1        0.0156
     24 C         142.0888  144.7880  162.8943 C.ar    1  UNL1        0.0644
     25 C         142.2542  143.6692  161.9090 C.ar    1  UNL1        0.0156
     26 C         143.3870  142.6977  162.0605 C.ar    1  UNL1        0.0006
     27 N         140.9559  145.7595  162.7428 N.pl3   1  UNL1       -0.2187
     28 H         141.1424  146.7200  162.6339 H       1  UNL1        0.1734
     29 S         139.5390  145.2674  162.7572 S.O2    1  UNL1        0.0558
     30 C         138.1220  144.7754  162.7716 C.3     1  UNL1        0.1996
     31 O         139.6874  144.8822  164.1993 O.2     1  UNL1       -0.1544
     32 O         139.3905  145.6527  161.3152 O.2     1  UNL1       -0.1544
@<TRIPOS>BOND
     1     1     2    1
     2     2     3    1
     3     3     4    1
     4     4     5   ar
     5     5     6   ar
     6     6     7   ar
     7     7     8   ar
     8     8     9   ar
     9     9    10    1
    10    10    13    1
    11    13    14   ar
    12    14    15   ar
    13    15    16   ar
    14    16    17   ar
    15    17    18   ar
    16    10    11    1
    17    11    12    2
    18    12    19    1
    19    19    20    1
    20    20    21    1
    21    21    22   ar
    22    22    23   ar
    23    23    24   ar
    24    24    27    1
    25    27    29    1
    26    29    30    1
    27    29    31    2
    28    29    32    2
    29    24    25   ar
    30    25    26   ar
    31    12     2    1
    32    26    21   ar
    33     9     4   ar
    34    18    13   ar
    35    27    28    1
@<TRIPOS>MOLECULE
*****
 32 35 0 0 0
SMALL
GASTEIGER

@<TRIPOS>ATOM
      1 C         144.0317  138.6193  162.5084 C.3     1  UNL1        0.1169
      2 N         143.2430  139.1246  163.6798 N.pl3   1  UNL1       -0.2584
      3 C         141.8830  138.5179  163.8593 C.3     1  UNL1        0.1216
      4 C         140.8626  138.8066  164.9202 C.ar    1  UNL1       -0.0041
      5 C         139.6280  137.9753  164.7338 C.ar    1  UNL1       -0.0029
      6 C         138.4811  138.1108  165.6910 C.ar    1  UNL1       -0.0003
      7 C         138.5688  139.0776  166.8345 C.ar    1  UNL1       -0.0003
      8 C         139.8033  139.9088  167.0209 C.ar    1  UNL1       -0.0023
      9 C         140.9503  139.7733  166.0637 C.ar    1  UNL1        0.0018
     10 C         142.0800  140.6902  166.4288 C.3     1  UNL1        0.1518
     11 N         143.4010  140.8667  165.7405 N.2     1  UNL1       -0.2172
     12 C         143.9186  140.1700  164.5171 C.2     1  UNL1        0.2843
     13 C         141.8595  141.5433  167.6427 C.ar    1  UNL1        0.0041
     14 C         140.7292  142.5292  167.6714 C.ar    1  UNL1       -0.0021
     15 C         140.5088  143.3822  168.8853 C.ar    1  UNL1       -0.0003
     16 C         141.4185  143.2495  170.0705 C.ar    1  UNL1       -0.0000
     17 C         142.5487  142.2637  170.0419 C.ar    1  UNL1       -0.0003
     18 C         142.7692  141.4106  168.8280 C.ar    1  UNL1       -0.0021
     19 O         145.2936  140.5717  164.0721 O.2     1  UNL1       -0.4449
     20 C         145.4943  141.8558  163.3234 C.3     1  UNL1        0.2350
     21 C         144.3607  142.8284  163.1850 C.ar    1  UNL1        0.0213
     22 C         143.3681  142.6697  162.0715 C.ar    1  UNL1        0.0006
     23 C         142.2345  143.6422  161.9331 C.ar    1  UNL1        0.0156
     24 C         142.0935  144.7734  162.9082 C.ar    1  UNL1        0.0644
     25 C         143.0861  144.9320  164.0215 C.ar    1  UNL1        0.0156
     26 C         144.2196  143.9595  164.1599 C.ar    1  UNL1        0.0006
     27 N         140.9599  145.7460  162.7697 N.pl3   1  UNL1       -0.2187
     28 H         141.1457  146.7077  162.6713 H       1  UNL1        0.1734
     29 S         139.5432  145.2531  162.7814 S.O2    1  UNL1        0.0558
     30 C         138.1266  144.7602  162.7931 C.3     1  UNL1        0.1996
     31 O         139.3837  145.6777  161.3517 O.2     1  UNL1       -0.1544
     32 O         139.7027  144.8284  164.2111 O.2     1  UNL1       -0.1544
@<TRIPOS>BOND
     1     1     2    1
     2     2     3    1
     3     3     4    1
     4     4     5   ar
     5     5     6   ar
     6     6     7   ar
     7     7     8   ar
     8     8     9   ar
     9     9    10    1
    10    10    13    1
    11    13    14   ar
    12    14    15   ar
    13    15    16   ar
    14    16    17   ar
    15    17    18   ar
    16    10    11    1
    17    11    12    2
    18    12    19    1
    19    19    20    1
    20    20    21    1
    21    21    22   ar
    22    22    23   ar
    23    23    24   ar
    24    24    27    1
    25    27    29    1
    26    29    30    1
    27    29    31    2
    28    29    32    2
    29    24    25   ar
    30    25    26   ar
    31    12     2    1
    32    26    21   ar
    33     9     4   ar
    34    18    13   ar
    35    27    28    1
@<TRIPOS>MOLECULE
*****
 32 35 0 0 0
SMALL
GASTEIGER

@<TRIPOS>ATOM
      1 C         144.4661  144.2079  162.4359 C.3     1  UNL1        0.1169
      2 N         143.3427  143.8838  163.3754 N.pl3   1  UNL1       -0.2584
      3 C         141.9990  144.4328  162.9972 C.3     1  UNL1        0.1216
      4 C         140.6921  144.2871  163.7190 C.ar    1  UNL1       -0.0041
      5 C         139.5850  144.9957  162.9964 C.ar    1  UNL1       -0.0029
      6 C         138.1920  144.9736  163.5523 C.ar    1  UNL1       -0.0003
      7 C         137.9062  144.2429  164.8307 C.ar    1  UNL1       -0.0003
      8 C         139.0133  143.5344  165.5533 C.ar    1  UNL1       -0.0023
      9 C         140.4063  143.5565  164.9974 C.ar    1  UNL1        0.0018
     10 C         141.3567  142.7911  165.8698 C.3     1  UNL1        0.1518
     11 N         142.8276  142.5672  165.6792 N.2     1  UNL1       -0.2172
     12 C         143.7114  143.0535  164.5691 C.2     1  UNL1        0.2843
     13 C         140.7568  142.1669  167.0948 C.ar    1  UNL1        0.0041
     14 C         140.6818  142.9469  168.3739 C.ar    1  UNL1       -0.0021
     15 C         140.0819  142.3227  169.5988 C.ar    1  UNL1       -0.0003
     16 C         139.5569  140.9187  169.5448 C.ar    1  UNL1       -0.0000
     17 C         139.6319  140.1387  168.2657 C.ar    1  UNL1       -0.0003
     18 C         140.2318  140.7628  167.0407 C.ar    1  UNL1       -0.0021
     19 O         145.1549  142.6572  164.6653 O.2     1  UNL1       -0.4449
     20 C         145.5821  141.2768  164.2629 C.3     1  UNL1        0.2350
     21 C         144.5508  140.2403  163.9279 C.ar    1  UNL1        0.0213
     22 C         143.9765  139.3763  165.0113 C.ar    1  UNL1        0.0006
     23 C         142.9452  138.3398  164.6764 C.ar    1  UNL1        0.0156
     24 C         142.4883  138.1674  163.2581 C.ar    1  UNL1        0.0644
     25 C         143.0626  139.0314  162.1748 C.ar    1  UNL1        0.0156
     26 C         144.0939  140.0679  162.5097 C.ar    1  UNL1        0.0006
     27 N         141.4570  137.1309  162.9232 N.pl3   1  UNL1       -0.2187
     28 H         141.7282  136.1958  162.7770 H       1  UNL1        0.1734
     29 S         140.0124  137.5191  162.8108 S.O2    1  UNL1        0.0558
     30 C         138.5679  137.9073  162.6986 C.3     1  UNL1        0.1996
     31 O         140.1672  137.6656  161.3261 O.2     1  UNL1       -0.1544
     32 O         139.8577  137.3725  164.2956 O.2     1  UNL1       -0.1544
@<TRIPOS>BOND
     1     1     2    1
     2     2     3    1
     3     3     4    1
     4     4     5   ar
     5     5     6   ar
     6     6     7   ar
     7     7     8   ar
     8     8     9   ar
     9     9    10    1
    10    10    13    1
    11    13    14   ar
    12    14    15   ar
    13    15    16   ar
    14    16    17   ar
    15    17    18   ar
    16    10    11    1
    17    11    12    2
    18    12    19    1
    19    19    20    1
    20    20    21    1
    21    21    22   ar
    22    22    23   ar
    23    23    24   ar
    24    24    27    1
    25    27    29    1
    26    29    30    1
    27    29    31    2
    28    29    32    2
    29    24    25   ar
    30    25    26   ar
    31    12     2    1
    32    26    21   ar
    33     9     4   ar
    34    18    13   ar
    35    27    28    1
@<TRIPOS>MOLECULE
*****
 32 35 0 0 0
SMALL
GASTEIGER

@<TRIPOS>ATOM
      1 C         140.4115  145.7370  162.2987 C.3     1  UNL1        0.1169
      2 N         141.1402  144.7341  163.1432 N.pl3   1  UNL1       -0.2584
      3 C         142.4254  144.2130  162.5714 C.3     1  UNL1        0.1216
      4 C         143.3752  143.2140  163.1630 C.ar    1  UNL1       -0.0041
      5 C         144.5472  142.9702  162.2591 C.ar    1  UNL1       -0.0029
      6 C         145.6184  142.0018  162.6648 C.ar    1  UNL1       -0.0003
      7 C         145.5176  141.2772  163.9743 C.ar    1  UNL1       -0.0003
      8 C         144.3456  141.5210  164.8781 C.ar    1  UNL1       -0.0023
      9 C         143.2744  142.4894  164.4725 C.ar    1  UNL1        0.0018
     10 C         142.1990  142.5848  165.5138 C.3     1  UNL1        0.1518
     11 N         140.9587  143.4284  165.5029 N.2     1  UNL1       -0.2172
     12 C         140.4875  144.3849  164.4478 C.2     1  UNL1        0.2843
     13 C         142.3889  141.7226  166.7265 C.ar    1  UNL1        0.0041
     14 C         142.9773  142.3060  167.9769 C.ar    1  UNL1       -0.0021
     15 C         143.1672  141.4438  169.1895 C.ar    1  UNL1       -0.0003
     16 C         142.7689  139.9982  169.1518 C.ar    1  UNL1       -0.0000
     17 C         142.1805  139.4148  167.9014 C.ar    1  UNL1       -0.0003
     18 C         141.9906  140.2770  166.6887 C.ar    1  UNL1       -0.0021
     19 O         139.1924  145.0848  164.7355 O.2     1  UNL1       -0.4449
     20 C         137.8937  144.3482  164.5914 C.3     1  UNL1        0.2350
     21 C         137.8403  143.0674  163.8124 C.ar    1  UNL1        0.0213
     22 C         137.7985  141.7525  164.5330 C.ar    1  UNL1        0.0006
     23 C         137.7451  140.4717  163.7540 C.ar    1  UNL1        0.0156
     24 C         137.7335  140.5059  162.2544 C.ar    1  UNL1        0.0644
     25 C         137.7753  141.8208  161.5339 C.ar    1  UNL1        0.0156
     26 C         137.8287  143.1016  162.3129 C.ar    1  UNL1        0.0006
     27 N         137.6801  139.2252  161.4754 N.pl3   1  UNL1       -0.2187
     28 H         136.9013  138.6290  161.5611 H       1  UNL1        0.1734
     29 S         138.8133  138.8527  160.5659 S.O2    1  UNL1        0.0558
     30 C         139.9465  138.4803  159.6565 C.3     1  UNL1        0.1996
     31 O         139.5293  138.2146  161.7192 O.2     1  UNL1       -0.1544
     32 O         138.0974  139.4909  159.4126 O.2     1  UNL1       -0.1544
@<TRIPOS>BOND
     1     1     2    1
     2     2     3    1
     3     3     4    1
     4     4     5   ar
     5     5     6   ar
     6     6     7   ar
     7     7     8   ar
     8     8     9   ar
     9     9    10    1
    10    10    13    1
    11    13    14   ar
    12    14    15   ar
    13    15    16   ar
    14    16    17   ar
    15    17    18   ar
    16    10    11    1
    17    11    12    2
    18    12    19    1
    19    19    20    1
    20    20    21    1
    21    21    22   ar
    22    22    23   ar
    23    23    24   ar
    24    24    27    1
    25    27    29    1
    26    29    30    1
    27    29    31    2
    28    29    32    2
    29    24    25   ar
    30    25    26   ar
    31    12     2    1
    32    26    21   ar
    33     9     4   ar
    34    18    13   ar
    35    27    28    1
@<TRIPOS>MOLECULE
*****
 32 35 0 0 0
SMALL
GASTEIGER

@<TRIPOS>ATOM
      1 C         138.0995  138.2864  162.6819 C.3     1  UNL1        0.1169
      2 N         138.5690  139.3354  163.6457 N.pl3   1  UNL1       -0.2584
      3 C         138.1084  140.7342  163.3607 C.3     1  UNL1        0.1216
      4 C         138.4021  141.9900  164.1267 C.ar    1  UNL1       -0.0041
      5 C         137.7429  143.1819  163.4985 C.ar    1  UNL1       -0.0029
      6 C         137.9106  144.5410  164.1106 C.ar    1  UNL1       -0.0003
      7 C         138.7375  144.7082  165.3509 C.ar    1  UNL1       -0.0003
      8 C         139.3967  143.5162  165.9791 C.ar    1  UNL1       -0.0023
      9 C         139.2290  142.1571  165.3670 C.ar    1  UNL1        0.0018
     10 C         139.9664  141.1098  166.1476 C.3     1  UNL1        0.1518
     11 N         140.0591  139.6366  165.8807 N.2     1  UNL1       -0.2172
     12 C         139.4372  138.8470  164.7673 C.2     1  UNL1        0.2843
     13 C         140.7094  141.6005  167.3547 C.ar    1  UNL1        0.0041
     14 C         139.9958  141.7486  168.6658 C.ar    1  UNL1       -0.0021
     15 C         140.7389  142.2393  169.8729 C.ar    1  UNL1       -0.0003
     16 C         142.1954  142.5820  169.7689 C.ar    1  UNL1       -0.0000
     17 C         142.9091  142.4339  168.4579 C.ar    1  UNL1       -0.0003
     18 C         142.1661  141.9432  167.2508 C.ar    1  UNL1       -0.0021
     19 O         139.7210  137.3741  164.7766 O.2     1  UNL1       -0.4449
     20 C         141.1122  136.8767  164.5177 C.3     1  UNL1        0.2350
     21 C         142.2043  137.8468  164.1770 C.ar    1  UNL1        0.0213
     22 C         143.1047  138.3718  165.2559 C.ar    1  UNL1        0.0006
     23 C         144.1968  139.3419  164.9152 C.ar    1  UNL1        0.0156
     24 C         144.3885  139.7872  163.4956 C.ar    1  UNL1        0.0644
     25 C         143.4882  139.2622  162.4169 C.ar    1  UNL1        0.0156
     26 C         142.3961  138.2921  162.7576 C.ar    1  UNL1        0.0006
     27 N         145.4806  140.7573  163.1549 N.pl3   1  UNL1       -0.2187
     28 H         146.4212  140.4673  163.1766 H       1  UNL1        0.1734
     29 S         145.1397  142.1695  162.7811 S.O2    1  UNL1        0.0558
     30 C         144.7987  143.5815  162.4073 C.3     1  UNL1        0.1996
     31 O         145.0560  142.5338  164.2338 O.2     1  UNL1       -0.1544
     32 O         145.2233  141.8051  161.3285 O.2     1  UNL1       -0.1544
@<TRIPOS>BOND
     1     1     2    1
     2     2     3    1
     3     3     4    1
     4     4     5   ar
     5     5     6   ar
     6     6     7   ar
     7     7     8   ar
     8     8     9   ar
     9     9    10    1
    10    10    13    1
    11    13    14   ar
    12    14    15   ar
    13    15    16   ar
    14    16    17   ar
    15    17    18   ar
    16    10    11    1
    17    11    12    2
    18    12    19    1
    19    19    20    1
    20    20    21    1
    21    21    22   ar
    22    22    23   ar
    23    23    24   ar
    24    24    27    1
    25    27    29    1
    26    29    30    1
    27    29    31    2
    28    29    32    2
    29    24    25   ar
    30    25    26   ar
    31    12     2    1
    32    26    21   ar
    33     9     4   ar
    34    18    13   ar
    35    27    28    1
@<TRIPOS>MOLECULE
*****
 32 35 0 0 0
SMALL
GASTEIGER

@<TRIPOS>ATOM
      1 C         139.0090  139.3864  161.9333 C.3     1  UNL1        0.1169
      2 N         139.5110  139.6653  163.3189 N.pl3   1  UNL1       -0.2584
      3 C         140.7609  138.9379  163.7171 C.3     1  UNL1        0.1216
      4 C         141.5054  139.0003  165.0179 C.ar    1  UNL1       -0.0041
      5 C         142.7129  138.1107  165.0014 C.ar    1  UNL1       -0.0029
      6 C         143.5987  138.0263  166.2090 C.ar    1  UNL1       -0.0003
      7 C         143.2770  138.8316  167.4329 C.ar    1  UNL1       -0.0003
      8 C         142.0695  139.7212  167.4493 C.ar    1  UNL1       -0.0023
      9 C         141.1837  139.8056  166.2418 C.ar    1  UNL1        0.0018
     10 C         140.0381  140.7473  166.4672 C.3     1  UNL1        0.1518
     11 N         138.9313  141.1165  165.5245 N.2     1  UNL1       -0.2172
     12 C         138.6968  140.6349  164.1233 C.2     1  UNL1        0.2843
     13 C         139.9934  141.4073  167.8135 C.ar    1  UNL1        0.0041
     14 C         139.4359  140.6675  168.9934 C.ar    1  UNL1       -0.0021
     15 C         139.3913  141.3275  170.3396 C.ar    1  UNL1       -0.0003
     16 C         139.9041  142.7272  170.5061 C.ar    1  UNL1       -0.0000
     17 C         140.4615  143.4670  169.3263 C.ar    1  UNL1       -0.0003
     18 C         140.5062  142.8071  167.9800 C.ar    1  UNL1       -0.0021
     19 O         137.4881  141.1973  163.4357 O.2     1  UNL1       -0.4449
     20 C         137.3709  142.6763  163.2152 C.3     1  UNL1        0.2350
     21 C         138.3895  143.3931  162.3794 C.ar    1  UNL1        0.0213
     22 C         139.0761  144.6137  162.9169 C.ar    1  UNL1        0.0006
     23 C         140.0947  145.3305  162.0810 C.ar    1  UNL1        0.0156
     24 C         140.4268  144.8267  160.7077 C.ar    1  UNL1        0.0644
     25 C         139.7402  143.6061  160.1703 C.ar    1  UNL1        0.0156
     26 C         138.7216  142.8893  161.0062 C.ar    1  UNL1        0.0006
     27 N         141.4454  145.5434  159.8719 N.pl3   1  UNL1       -0.2187
     28 H         141.9194  146.3254  160.2367 H       1  UNL1        0.1734
     29 S         141.7418  145.0687  158.4801 S.O2    1  UNL1        0.0558
     30 C         142.0383  144.5941  157.0885 C.3     1  UNL1        0.1996
     31 O         142.8196  144.1732  159.0151 O.2     1  UNL1       -0.1544
     32 O         140.6640  145.9643  157.9451 O.2     1  UNL1       -0.1544
@<TRIPOS>BOND
     1     1     2    1
     2     2     3    1
     3     3     4    1
     4     4     5   ar
     5     5     6   ar
     6     6     7   ar
     7     7     8   ar
     8     8     9   ar
     9     9    10    1
    10    10    13    1
    11    13    14   ar
    12    14    15   ar
    13    15    16   ar
    14    16    17   ar
    15    17    18   ar
    16    10    11    1
    17    11    12    2
    18    12    19    1
    19    19    20    1
    20    20    21    1
    21    21    22   ar
    22    22    23   ar
    23    23    24   ar
    24    24    27    1
    25    27    29    1
    26    29    30    1
    27    29    31    2
    28    29    32    2
    29    24    25   ar
    30    25    26   ar
    31    12     2    1
    32    26    21   ar
    33     9     4   ar
    34    18    13   ar
    35    27    28    1
@<TRIPOS>MOLECULE
*****
 32 35 0 0 0
SMALL
GASTEIGER

@<TRIPOS>ATOM
      1 C         137.7683  138.0906  166.6160 C.3     1  UNL1        0.1169
      2 N         139.0288  138.8984  166.5235 N.pl3   1  UNL1       -0.2584
      3 C         139.3365  139.7627  167.7103 C.3     1  UNL1        0.1216
      4 C         140.5063  140.6772  167.9232 C.ar    1  UNL1       -0.0041
      5 C         140.4316  141.3615  169.2559 C.ar    1  UNL1       -0.0029
      6 C         141.5079  142.3218  169.6673 C.ar    1  UNL1       -0.0003
      7 C         142.6590  142.5978  168.7459 C.ar    1  UNL1       -0.0003
      8 C         142.7337  141.9136  167.4132 C.ar    1  UNL1       -0.0023
      9 C         141.6573  140.9533  167.0018 C.ar    1  UNL1        0.0018
     10 C         141.9228  140.3830  165.6400 C.3     1  UNL1        0.1518
     11 N         141.1029  139.3959  164.8633 N.2     1  UNL1       -0.2172
     12 C         139.8150  138.7352  165.2565 C.2     1  UNL1        0.2843
     13 C         143.1737  140.8635  164.9659 C.ar    1  UNL1        0.0041
     14 C         144.3319  139.9286  164.7797 C.ar    1  UNL1       -0.0021
     15 C         145.5827  140.4091  164.1055 C.ar    1  UNL1       -0.0003
     16 C         145.6755  141.8244  163.6175 C.ar    1  UNL1       -0.0000
     17 C         144.5173  142.7594  163.8037 C.ar    1  UNL1       -0.0003
     18 C         143.2664  142.2789  164.4779 C.ar    1  UNL1       -0.0021
     19 O         139.2366  137.7857  164.2495 O.2     1  UNL1       -0.4449
     20 C         138.5583  138.3165  163.0215 C.3     1  UNL1        0.2350
     21 C         138.4745  139.7963  162.7912 C.ar    1  UNL1        0.0213
     22 C         137.4579  140.6142  163.5313 C.ar    1  UNL1        0.0006
     23 C         137.3742  142.0940  163.3010 C.ar    1  UNL1        0.0156
     24 C         138.3071  142.7560  162.3306 C.ar    1  UNL1        0.0644
     25 C         139.3236  141.9381  161.5906 C.ar    1  UNL1        0.0156
     26 C         139.4074  140.4583  161.8209 C.ar    1  UNL1        0.0006
     27 N         138.2234  144.2358  162.1003 N.pl3   1  UNL1       -0.2187
     28 H         137.3694  144.6445  161.8301 H       1  UNL1        0.1734
     29 S         139.4409  145.0932  162.2816 S.O2    1  UNL1        0.0558
     30 C         140.6583  145.9504  162.4629 C.3     1  UNL1        0.1996
     31 O         139.5000  145.3224  160.8004 O.2     1  UNL1       -0.1544
     32 O         139.3817  144.8639  163.7627 O.2     1  UNL1       -0.1544
@<TRIPOS>BOND
     1     1     2    1
     2     2     3    1
     3     3     4    1
     4     4     5   ar
     5     5     6   ar
     6     6     7   ar
     7     7     8   ar
     8     8     9   ar
     9     9    10    1
    10    10    13    1
    11    13    14   ar
    12    14    15   ar
    13    15    16   ar
    14    16    17   ar
    15    17    18   ar
    16    10    11    1
    17    11    12    2
    18    12    19    1
    19    19    20    1
    20    20    21    1
    21    21    22   ar
    22    22    23   ar
    23    23    24   ar
    24    24    27    1
    25    27    29    1
    26    29    30    1
    27    29    31    2
    28    29    32    2
    29    24    25   ar
    30    25    26   ar
    31    12     2    1
    32    26    21   ar
    33     9     4   ar
    34    18    13   ar
    35    27    28    1
@<TRIPOS>MOLECULE
*****
 32 35 0 0 0
SMALL
GASTEIGER

@<TRIPOS>ATOM
      1 C         138.1526  138.2889  162.7128 C.3     1  UNL1        0.1169
      2 N         138.6607  139.3485  163.6450 N.pl3   1  UNL1       -0.2584
      3 C         138.1576  140.7379  163.3871 C.3     1  UNL1        0.1216
      4 C         138.4742  142.0006  164.1323 C.ar    1  UNL1       -0.0041
      5 C         137.7558  143.1788  163.5443 C.ar    1  UNL1       -0.0029
      6 C         137.9353  144.5421  164.1435 C.ar    1  UNL1       -0.0003
      7 C         138.8332  144.7273  165.3307 C.ar    1  UNL1       -0.0003
      8 C         139.5516  143.5492  165.9187 C.ar    1  UNL1       -0.0023
      9 C         139.3721  142.1858  165.3195 C.ar    1  UNL1        0.0018
     10 C         140.1752  141.1540  166.0547 C.3     1  UNL1        0.1518
     11 N         140.2787  139.6822  165.7843 N.2     1  UNL1       -0.2172
     12 C         139.6047  138.8787  164.7119 C.2     1  UNL1        0.2843
     13 C         140.9813  141.6611  167.2136 C.ar    1  UNL1        0.0041
     14 C         142.4536  141.9008  167.0554 C.ar    1  UNL1       -0.0021
     15 C         143.2597  142.4079  168.2143 C.ar    1  UNL1       -0.0003
     16 C         142.5937  142.6752  169.5313 C.ar    1  UNL1       -0.0000
     17 C         141.1214  142.4356  169.6896 C.ar    1  UNL1       -0.0003
     18 C         140.3152  141.9285  168.5307 C.ar    1  UNL1       -0.0021
     19 O         139.9158  137.4114  164.7055 O.2     1  UNL1       -0.4449
     20 C         141.2437  136.9284  164.2021 C.3     1  UNL1        0.2350
     21 C         142.0226  137.7587  163.2254 C.ar    1  UNL1        0.0213
     22 C         143.1248  138.6522  163.7122 C.ar    1  UNL1        0.0006
     23 C         143.9038  139.4825  162.7355 C.ar    1  UNL1        0.0156
     24 C         143.5805  139.4193  161.2721 C.ar    1  UNL1        0.0644
     25 C         142.4783  138.5259  160.7854 C.ar    1  UNL1        0.0156
     26 C         141.6994  137.6956  161.7620 C.ar    1  UNL1        0.0006
     27 N         144.3594  140.2496  160.2954 N.pl3   1  UNL1       -0.2187
     28 H         145.3383  140.3158  160.3764 H       1  UNL1        0.1734
     29 S         143.6468  140.9790  159.1952 S.O2    1  UNL1        0.0558
     30 C         142.9342  141.7083  158.0951 C.3     1  UNL1        0.1996
     31 O         143.0391  141.9075  160.2044 O.2     1  UNL1       -0.1544
     32 O         144.2545  140.0505  158.1861 O.2     1  UNL1       -0.1544
@<TRIPOS>BOND
     1     1     2    1
     2     2     3    1
     3     3     4    1
     4     4     5   ar
     5     5     6   ar
     6     6     7   ar
     7     7     8   ar
     8     8     9   ar
     9     9    10    1
    10    10    13    1
    11    13    14   ar
    12    14    15   ar
    13    15    16   ar
    14    16    17   ar
    15    17    18   ar
    16    10    11    1
    17    11    12    2
    18    12    19    1
    19    19    20    1
    20    20    21    1
    21    21    22   ar
    22    22    23   ar
    23    23    24   ar
    24    24    27    1
    25    27    29    1
    26    29    30    1
    27    29    31    2
    28    29    32    2
    29    24    25   ar
    30    25    26   ar
    31    12     2    1
    32    26    21   ar
    33     9     4   ar
    34    18    13   ar
    35    27    28    1
@<TRIPOS>MOLECULE
*****
 32 35 0 0 0
SMALL
GASTEIGER

@<TRIPOS>ATOM
      1 C         142.9695  144.2990  162.5173 C.3     1  UNL1        0.1169
      2 N         142.6292  143.3604  163.6367 N.pl3   1  UNL1       -0.2584
      3 C         143.4869  142.1344  163.7418 C.3     1  UNL1        0.1216
      4 C         143.4035  141.0171  164.7392 C.ar    1  UNL1       -0.0041
      5 C         144.4563  139.9786  164.4881 C.ar    1  UNL1       -0.0029
      6 C         144.5472  138.7729  165.3758 C.ar    1  UNL1       -0.0003
      7 C         143.5852  138.6058  166.5145 C.ar    1  UNL1       -0.0003
      8 C         142.5324  139.6442  166.7656 C.ar    1  UNL1       -0.0023
      9 C         142.4415  140.8499  165.8779 C.ar    1  UNL1        0.0018
     10 C         141.3255  141.7588  166.3004 C.3     1  UNL1        0.1518
     11 N         140.8957  143.0592  165.6887 N.2     1  UNL1       -0.2172
     12 C         141.4759  143.7720  164.5032 C.2     1  UNL1        0.2843
     13 C         140.5346  141.3074  167.4924 C.ar    1  UNL1        0.0041
     14 C         140.7275  141.9802  168.8191 C.ar    1  UNL1       -0.0021
     15 C         139.9366  141.5288  170.0110 C.ar    1  UNL1       -0.0003
     16 C         138.9528  140.4048  169.8763 C.ar    1  UNL1       -0.0000
     17 C         138.7597  139.7319  168.5497 C.ar    1  UNL1       -0.0003
     18 C         139.5506  140.1832  167.3577 C.ar    1  UNL1       -0.0021
     19 O         140.8156  145.0677  164.1357 O.2     1  UNL1       -0.4449
     20 C         139.4838  145.0614  163.4456 C.3     1  UNL1        0.2350
     21 C         139.0372  143.8461  162.6883 C.ar    1  UNL1        0.0213
     22 C         138.0492  142.9000  163.3038 C.ar    1  UNL1        0.0006
     23 C         137.6025  141.6847  162.5465 C.ar    1  UNL1        0.0156
     24 C         138.1439  141.4155  161.1737 C.ar    1  UNL1        0.0644
     25 C         139.1318  142.3616  160.5582 C.ar    1  UNL1        0.0156
     26 C         139.5784  143.5769  161.3155 C.ar    1  UNL1        0.0006
     27 N         137.6972  140.2002  160.4164 N.pl3   1  UNL1       -0.2187
     28 H         136.7678  139.8852  160.4951 H       1  UNL1        0.1734
     29 S         138.6667  139.4648  159.5392 S.O2    1  UNL1        0.0558
     30 C         139.6361  138.7295  158.6619 C.3     1  UNL1        0.1996
     31 O         139.3517  138.9166  160.7557 O.2     1  UNL1       -0.1544
     32 O         137.9817  140.0131  158.3226 O.2     1  UNL1       -0.1544
@<TRIPOS>BOND
     1     1     2    1
     2     2     3    1
     3     3     4    1
     4     4     5   ar
     5     5     6   ar
     6     6     7   ar
     7     7     8   ar
     8     8     9   ar
     9     9    10    1
    10    10    13    1
    11    13    14   ar
    12    14    15   ar
    13    15    16   ar
    14    16    17   ar
    15    17    18   ar
    16    10    11    1
    17    11    12    2
    18    12    19    1
    19    19    20    1
    20    20    21    1
    21    21    22   ar
    22    22    23   ar
    23    23    24   ar
    24    24    27    1
    25    27    29    1
    26    29    30    1
    27    29    31    2
    28    29    32    2
    29    24    25   ar
    30    25    26   ar
    31    12     2    1
    32    26    21   ar
    33     9     4   ar
    34    18    13   ar
    35    27    28    1
