@<TRIPOS>MOLECULE
*****
 34 36 0 0 0
SMALL
GASTEIGER

@<TRIPOS>ATOM
      1 C         140.5539  137.9625  163.6631 C.3     1  UNL1        0.0944
      2 N         140.0586  138.0065  165.0783 N.am    1  UNL1       -0.3005
      3 C         138.9407  138.9336  165.4532 C.2     1  UNL1        0.2474
      4 O         138.3180  139.8169  164.4129 O.2     1  UNL1       -0.2701
      5 H         140.4673  137.4268  165.7611 H       1  UNL1        0.1498
      6 C         138.4455  138.9776  166.8684 C.ar    1  UNL1        0.0727
      7 C         139.1165  139.8696  167.8705 C.ar    1  UNL1        0.0109
      8 C         138.6213  139.9135  169.2857 C.ar    1  UNL1        0.0579
      9 C         137.4550  139.0655  169.6988 C.ar    1  UNL1        0.2249
     10 N         136.7839  138.1736  168.6968 N.ar    1  UNL1       -0.2100
     11 C         137.2792  138.1296  167.2815 C.ar    1  UNL1        0.1065
     12 O         136.9597  139.1095  171.1140 O.3     1  UNL1       -0.4599
     13 C         135.7433  138.3249  171.5076 C.3     1  UNL1        0.2159
     14 C         135.5374  137.9287  172.9396 C.3     1  UNL1        0.1505
     15 C         135.7829  136.5124  173.3687 C.3     1  UNL1        0.4014
     16 F         136.0283  135.0962  173.7977 F       1  UNL1       -0.1699
     17 F         137.0765  136.5066  172.6094 F       1  UNL1       -0.1699
     18 F         134.4892  136.5183  174.1279 F       1  UNL1       -0.1699
     19 C         142.0003  137.6805  163.3831 C.3     1  UNL1        0.0473
     20 C         143.5167  139.7376  163.8512 C.ar    1  UNL1       -0.0012
     21 C         144.4111  140.8328  163.3507 C.ar    1  UNL1       -0.0002
     22 C         144.6836  140.9662  161.8817 C.ar    1  UNL1       -0.0003
     23 C         144.0617  140.0043  160.9132 C.ar    1  UNL1       -0.0046
     24 C         143.1673  138.9091  161.4137 C.ar    1  UNL1       -0.0257
     25 C         142.5453  137.9472  160.4451 C.3     1  UNL1        0.0307
     26 C         142.8948  138.7758  162.8827 C.ar    1  UNL1       -0.0243
     27 C         142.6991  139.3375  168.2582 C.ar    1  UNL1        0.3201
     28 N         143.5135  138.2965  167.5489 N.ar    1  UNL1       -0.1927
     29 C         143.7860  138.4299  166.0799 C.ar    1  UNL1        0.1051
     30 C         143.2441  139.6042  165.3202 C.ar    1  UNL1        0.0383
     31 C         142.4297  140.6452  166.0294 C.ar    1  UNL1        0.1051
     32 N         142.1572  140.5118  167.4984 N.ar    1  UNL1       -0.1927
     33 C         143.1003  140.1242  170.7015 C.3     1  UNL1        0.2559
     34 O         142.4266  139.2041  169.7272 O.3     1  UNL1       -0.4426
@<TRIPOS>BOND
     1    33    34    1
     2    34    27    1
     3    27    28   ar
     4    28    29   ar
     5    29    30   ar
     6    30    20    1
     7    20    21   ar
     8    21    22   ar
     9    22    23   ar
    10    23    24   ar
    11    24    25    1
    12    24    26   ar
    13    26    19    1
    14    19     1    1
    15     1     2    1
    16     2     3   am
    17     3     4    2
    18     3     6    1
    19     6     7   ar
    20     7     8   ar
    21     8     9   ar
    22     9    12    1
    23    12    13    1
    24    13    14    1
    25    14    15    1
    26    15    16    1
    27    15    17    1
    28    15    18    1
    29     9    10   ar
    30    10    11   ar
    31    30    31   ar
    32    31    32   ar
    33    32    27   ar
    34    26    20   ar
    35    11     6   ar
    36     2     5    1
@<TRIPOS>MOLECULE
*****
 34 36 0 0 0
SMALL
GASTEIGER

@<TRIPOS>ATOM
      1 C         138.9782  142.5938  164.5810 C.3     1  UNL1        0.0944
      2 N         139.6964  142.8849  163.2966 N.am    1  UNL1       -0.3005
      3 C         139.0800  143.8041  162.2843 C.2     1  UNL1        0.2474
      4 O         137.7453  144.4324  162.5562 O.2     1  UNL1       -0.2701
      5 H         140.5724  142.4725  163.1182 H       1  UNL1        0.1498
      6 C         139.7982  144.0952  161.0000 C.ar    1  UNL1        0.0727
      7 C         139.5227  143.2646  159.7817 C.ar    1  UNL1        0.0109
      8 C         140.2410  143.5556  158.4974 C.ar    1  UNL1        0.0579
      9 C         141.2347  144.6772  158.4314 C.ar    1  UNL1        0.2249
     10 N         141.5102  145.5078  159.6496 N.ar    1  UNL1       -0.2100
     11 C         140.7920  145.2168  160.9340 C.ar    1  UNL1        0.1065
     12 O         141.9530  144.9683  157.1472 O.3     1  UNL1       -0.4599
     13 C         141.2778  145.7722  156.0757 C.3     1  UNL1        0.2159
     14 C         140.0260  146.5371  156.3885 C.3     1  UNL1        0.1505
     15 C         138.7762  146.2860  155.5978 C.3     1  UNL1        0.4014
     16 F         137.5265  146.0350  154.8072 F       1  UNL1       -0.1699
     17 F         139.0156  144.8081  155.6888 F       1  UNL1       -0.1699
     18 F         138.5369  147.7640  155.5068 F       1  UNL1       -0.1699
     19 C         138.0092  141.4513  164.6561 C.3     1  UNL1        0.0473
     20 C         139.0552  139.1217  165.1348 C.ar    1  UNL1       -0.0012
     21 C         139.4642  137.7590  164.6598 C.ar    1  UNL1       -0.0002
     22 C         139.2362  137.3630  163.2311 C.ar    1  UNL1       -0.0003
     23 C         138.5992  138.3297  162.2774 C.ar    1  UNL1       -0.0046
     24 C         138.1902  139.6925  162.7524 C.ar    1  UNL1       -0.0257
     25 C         137.5531  140.6593  161.7987 C.3     1  UNL1        0.0307
     26 C         138.4182  140.0884  164.1811 C.ar    1  UNL1       -0.0243
     27 C         139.7393  140.3097  169.4210 C.ar    1  UNL1        0.3201
     28 N         138.4639  139.6257  169.0267 N.ar    1  UNL1       -0.1927
     29 C         138.2359  139.2297  167.5980 C.ar    1  UNL1        0.1051
     30 C         139.2833  139.5177  166.5635 C.ar    1  UNL1        0.0383
     31 C         140.5586  140.2017  166.9578 C.ar    1  UNL1        0.1051
     32 N         140.7867  140.5977  168.3865 N.ar    1  UNL1       -0.1927
     33 C         140.9465  141.7930  171.1794 C.3     1  UNL1        0.2559
     34 O         139.9673  140.7057  170.8497 O.3     1  UNL1       -0.4426
@<TRIPOS>BOND
     1    33    34    1
     2    34    27    1
     3    27    28   ar
     4    28    29   ar
     5    29    30   ar
     6    30    20    1
     7    20    21   ar
     8    21    22   ar
     9    22    23   ar
    10    23    24   ar
    11    24    25    1
    12    24    26   ar
    13    26    19    1
    14    19     1    1
    15     1     2    1
    16     2     3   am
    17     3     4    2
    18     3     6    1
    19     6     7   ar
    20     7     8   ar
    21     8     9   ar
    22     9    12    1
    23    12    13    1
    24    13    14    1
    25    14    15    1
    26    15    16    1
    27    15    17    1
    28    15    18    1
    29     9    10   ar
    30    10    11   ar
    31    30    31   ar
    32    31    32   ar
    33    32    27   ar
    34    26    20   ar
    35    11     6   ar
    36     2     5    1
@<TRIPOS>MOLECULE
*****
 34 36 0 0 0
SMALL
GASTEIGER

@<TRIPOS>ATOM
      1 C         140.7531  140.1424  161.1169 C.3     1  UNL1        0.0944
      2 N         140.4160  140.3168  162.5681 N.am    1  UNL1       -0.3005
      3 C         140.1001  139.1190  163.4139 C.2     1  UNL1        0.2474
      4 O         140.1213  137.7467  162.8086 O.2     1  UNL1       -0.2701
      5 H         140.4021  141.2175  162.9654 H       1  UNL1        0.1498
      6 C         139.7630  139.2935  164.8651 C.ar    1  UNL1        0.0727
      7 C         138.4846  138.7298  165.4111 C.ar    1  UNL1        0.0109
      8 C         138.1475  138.9043  166.8623 C.ar    1  UNL1        0.0579
      9 C         139.0887  139.6424  167.7674 C.ar    1  UNL1        0.2249
     10 N         140.3670  140.2061  167.2214 N.ar    1  UNL1       -0.2100
     11 C         140.7042  140.0316  165.7702 C.ar    1  UNL1        0.1065
     12 O         138.7516  139.8169  169.2186 O.3     1  UNL1       -0.4599
     13 C         139.6920  140.5566  170.1234 C.3     1  UNL1        0.2159
     14 C         139.5674  142.0430  170.2811 C.3     1  UNL1        0.1505
     15 C         140.7847  142.9131  170.1758 C.3     1  UNL1        0.4014
     16 F         142.0020  143.7832  170.0705 F       1  UNL1       -0.1699
     17 F         141.4133  142.1720  171.3185 F       1  UNL1       -0.1699
     18 F         140.1562  143.6542  169.0332 F       1  UNL1       -0.1699
     19 C         142.1766  140.2580  160.6585 C.3     1  UNL1        0.0473
     20 C         143.5824  142.2185  161.6231 C.ar    1  UNL1       -0.0012
     21 C         144.6354  142.7211  162.5657 C.ar    1  UNL1       -0.0002
     22 C         145.3357  141.7660  163.4862 C.ar    1  UNL1       -0.0003
     23 C         144.9830  140.3083  163.4642 C.ar    1  UNL1       -0.0046
     24 C         143.9300  139.8056  162.5216 C.ar    1  UNL1       -0.0257
     25 C         143.5772  138.3478  162.4995 C.3     1  UNL1        0.0307
     26 C         143.2297  140.7607  161.6011 C.ar    1  UNL1       -0.0243
     27 C         141.4815  145.0838  158.8615 C.ar    1  UNL1        0.3201
     28 N         142.6543  144.2898  158.3676 N.ar    1  UNL1       -0.1927
     29 C         143.3546  143.3347  159.2882 C.ar    1  UNL1        0.1051
     30 C         142.8821  143.1736  160.7026 C.ar    1  UNL1        0.0383
     31 C         141.7092  143.9675  161.1965 C.ar    1  UNL1        0.1051
     32 N         141.0089  144.9226  160.2760 N.ar    1  UNL1       -0.1927
     33 C         140.2830  145.5662  156.6075 C.3     1  UNL1        0.2559
     34 O         140.7812  146.0389  157.9410 O.3     1  UNL1       -0.4426
@<TRIPOS>BOND
     1    33    34    1
     2    34    27    1
     3    27    28   ar
     4    28    29   ar
     5    29    30   ar
     6    30    20    1
     7    20    21   ar
     8    21    22   ar
     9    22    23   ar
    10    23    24   ar
    11    24    25    1
    12    24    26   ar
    13    26    19    1
    14    19     1    1
    15     1     2    1
    16     2     3   am
    17     3     4    2
    18     3     6    1
    19     6     7   ar
    20     7     8   ar
    21     8     9   ar
    22     9    12    1
    23    12    13    1
    24    13    14    1
    25    14    15    1
    26    15    16    1
    27    15    17    1
    28    15    18    1
    29     9    10   ar
    30    10    11   ar
    31    30    31   ar
    32    31    32   ar
    33    32    27   ar
    34    26    20   ar
    35    11     6   ar
    36     2     5    1
@<TRIPOS>MOLECULE
*****
 34 36 0 0 0
SMALL
GASTEIGER

@<TRIPOS>ATOM
      1 C         144.9126  140.6736  163.2309 C.3     1  UNL1        0.0944
      2 N         144.3267  140.4648  164.5959 N.am    1  UNL1       -0.3005
      3 C         142.8399  140.3631  164.7664 C.2     1  UNL1        0.2474
      4 O         141.9390  140.4701  163.5719 O.2     1  UNL1       -0.2701
      5 H         144.9180  140.3946  165.3800 H       1  UNL1        0.1498
      6 C         142.2541  140.1544  166.1314 C.ar    1  UNL1        0.0727
      7 C         143.0713  139.5012  167.2064 C.ar    1  UNL1        0.0109
      8 C         142.4854  139.2925  168.5714 C.ar    1  UNL1        0.0579
      9 C         141.0824  139.7369  168.8614 C.ar    1  UNL1        0.2249
     10 N         140.2653  140.3900  167.7864 N.ar    1  UNL1       -0.2100
     11 C         140.8511  140.5988  166.4213 C.ar    1  UNL1        0.1065
     12 O         140.4966  139.5281  170.2263 O.3     1  UNL1       -0.4599
     13 C         140.4024  140.6773  171.1859 C.3     1  UNL1        0.2159
     14 C         141.2573  141.8935  170.9858 C.3     1  UNL1        0.1505
     15 C         140.7261  143.0650  170.2142 C.3     1  UNL1        0.4014
     16 F         140.1949  144.2365  169.4426 F       1  UNL1       -0.1699
     17 F         139.3505  142.4683  170.2552 F       1  UNL1       -0.1699
     18 F         142.1016  143.6617  170.1731 F       1  UNL1       -0.1699
     19 C         145.1533  142.0641  162.7227 C.3     1  UNL1        0.0473
     20 C         143.1823  143.1183  161.3983 C.ar    1  UNL1       -0.0012
     21 C         142.0463  144.0945  161.3176 C.ar    1  UNL1       -0.0002
     22 C         141.7453  144.9927  162.4806 C.ar    1  UNL1       -0.0003
     23 C         142.5802  144.9147  163.7243 C.ar    1  UNL1       -0.0046
     24 C         143.7162  143.9386  163.8050 C.ar    1  UNL1       -0.0257
     25 C         144.5512  143.8606  165.0487 C.3     1  UNL1        0.0307
     26 C         144.0173  143.0404  162.6420 C.ar    1  UNL1       -0.0243
     27 C         144.0856  140.4237  157.9093 C.ar    1  UNL1        0.3201
     28 N         143.1189  139.9817  158.9677 N.ar    1  UNL1       -0.1927
     29 C         142.8178  140.8800  160.1307 C.ar    1  UNL1        0.1051
     30 C         143.4834  142.2201  160.2353 C.ar    1  UNL1        0.0383
     31 C         144.4501  142.6620  159.1769 C.ar    1  UNL1        0.1051
     32 N         144.7511  141.7638  158.0139 N.ar    1  UNL1       -0.1927
     33 C         144.1197  139.9952  155.3471 C.3     1  UNL1        0.2559
     34 O         144.3866  139.5254  156.7463 O.3     1  UNL1       -0.4426
@<TRIPOS>BOND
     1    33    34    1
     2    34    27    1
     3    27    28   ar
     4    28    29   ar
     5    29    30   ar
     6    30    20    1
     7    20    21   ar
     8    21    22   ar
     9    22    23   ar
    10    23    24   ar
    11    24    25    1
    12    24    26   ar
    13    26    19    1
    14    19     1    1
    15     1     2    1
    16     2     3   am
    17     3     4    2
    18     3     6    1
    19     6     7   ar
    20     7     8   ar
    21     8     9   ar
    22     9    12    1
    23    12    13    1
    24    13    14    1
    25    14    15    1
    26    15    16    1
    27    15    17    1
    28    15    18    1
    29     9    10   ar
    30    10    11   ar
    31    30    31   ar
    32    31    32   ar
    33    32    27   ar
    34    26    20   ar
    35    11     6   ar
    36     2     5    1
@<TRIPOS>MOLECULE
*****
 34 36 0 0 0
SMALL
GASTEIGER

@<TRIPOS>ATOM
      1 C         141.7170  142.8139  164.9790 C.3     1  UNL1        0.0944
      2 N         141.6205  143.0177  163.4960 N.am    1  UNL1       -0.3005
      3 C         141.6611  144.4043  162.9254 C.2     1  UNL1        0.2474
      4 O         141.7983  145.5871  163.8376 O.2     1  UNL1       -0.2701
      5 H         141.5304  142.2414  162.8973 H       1  UNL1        0.1498
      6 C         141.5646  144.6081  161.4424 C.ar    1  UNL1        0.0727
      7 C         140.5076  145.5095  160.8765 C.ar    1  UNL1        0.0109
      8 C         140.4110  145.7133  159.3936 C.ar    1  UNL1        0.0579
      9 C         141.3714  145.0157  158.4765 C.ar    1  UNL1        0.2249
     10 N         142.4284  144.1143  159.0424 N.ar    1  UNL1       -0.2100
     11 C         142.5250  143.9105  160.5254 C.ar    1  UNL1        0.1065
     12 O         141.2749  145.2195  156.9936 O.3     1  UNL1       -0.4599
     13 C         139.9698  145.6257  156.3757 C.3     1  UNL1        0.2159
     14 C         139.9407  146.6808  155.3100 C.3     1  UNL1        0.1505
     15 C         139.1216  147.9222  155.5057 C.3     1  UNL1        0.4014
     16 F         138.3026  149.1635  155.7015 F       1  UNL1       -0.1699
     17 F         139.2555  148.2407  154.0461 F       1  UNL1       -0.1699
     18 F         138.9878  147.6036  156.9654 F       1  UNL1       -0.1699
     19 C         140.4820  142.8825  165.8275 C.3     1  UNL1        0.0473
     20 C         138.9016  140.9013  165.2553 C.ar    1  UNL1       -0.0012
     21 C         138.2005  139.6394  165.6627 C.ar    1  UNL1       -0.0002
     22 C         138.3786  139.0967  167.0496 C.ar    1  UNL1       -0.0003
     23 C         139.2579  139.8159  168.0292 C.ar    1  UNL1       -0.0046
     24 C         139.9590  141.0778  167.6218 C.ar    1  UNL1       -0.0257
     25 C         140.8383  141.7971  168.6014 C.3     1  UNL1        0.0307
     26 C         139.7808  141.6205  166.2349 C.ar    1  UNL1       -0.0243
     27 C         138.3671  142.5294  161.0943 C.ar    1  UNL1        0.3201
     28 N         139.1585  141.2741  161.3126 N.ar    1  UNL1       -0.1927
     29 C         139.3367  140.7314  162.6995 C.ar    1  UNL1        0.1051
     30 C         138.7234  141.4440  163.8683 C.ar    1  UNL1        0.0383
     31 C         137.9320  142.6994  163.6500 C.ar    1  UNL1        0.1051
     32 N         137.7539  143.2421  162.2630 N.ar    1  UNL1       -0.1927
     33 C         138.6945  142.2959  158.5276 C.3     1  UNL1        0.2559
     34 O         138.1890  143.0722  159.7073 O.3     1  UNL1       -0.4426
@<TRIPOS>BOND
     1    33    34    1
     2    34    27    1
     3    27    28   ar
     4    28    29   ar
     5    29    30   ar
     6    30    20    1
     7    20    21   ar
     8    21    22   ar
     9    22    23   ar
    10    23    24   ar
    11    24    25    1
    12    24    26   ar
    13    26    19    1
    14    19     1    1
    15     1     2    1
    16     2     3   am
    17     3     4    2
    18     3     6    1
    19     6     7   ar
    20     7     8   ar
    21     8     9   ar
    22     9    12    1
    23    12    13    1
    24    13    14    1
    25    14    15    1
    26    15    16    1
    27    15    17    1
    28    15    18    1
    29     9    10   ar
    30    10    11   ar
    31    30    31   ar
    32    31    32   ar
    33    32    27   ar
    34    26    20   ar
    35    11     6   ar
    36     2     5    1
@<TRIPOS>MOLECULE
*****
 34 36 0 0 0
SMALL
GASTEIGER

@<TRIPOS>ATOM
      1 C         140.8556  138.6742  163.1182 C.3     1  UNL1        0.0944
      2 N         140.1978  138.5648  164.4619 N.am    1  UNL1       -0.3005
      3 C         140.0423  139.7836  165.3223 C.2     1  UNL1        0.2474
      4 O         140.5446  141.1118  164.8391 O.2     1  UNL1       -0.2701
      5 H         139.8680  137.6931  164.7791 H       1  UNL1        0.1498
      6 C         139.3845  139.6742  166.6659 C.ar    1  UNL1        0.0727
      7 C         139.9297  140.4432  167.8328 C.ar    1  UNL1        0.0109
      8 C         139.2719  140.3338  169.1764 C.ar    1  UNL1        0.0579
      9 C         138.0690  139.4553  169.3532 C.ar    1  UNL1        0.2249
     10 N         137.5238  138.6863  168.1864 N.ar    1  UNL1       -0.2100
     11 C         138.1816  138.7957  166.8427 C.ar    1  UNL1        0.1065
     12 O         137.4112  139.3459  170.6968 O.3     1  UNL1       -0.4599
     13 C         136.4021  138.2658  170.9521 C.3     1  UNL1        0.2159
     14 C         135.6230  138.2550  172.2338 C.3     1  UNL1        0.1505
     15 C         135.6456  137.0414  173.1152 C.3     1  UNL1        0.4014
     16 F         135.6682  135.8279  173.9965 F       1  UNL1       -0.1699
     17 F         137.1116  136.8732  172.8461 F       1  UNL1       -0.1699
     18 F         134.1796  137.2096  173.3843 F       1  UNL1       -0.1699
     19 C         142.3051  138.3216  162.9619 C.3     1  UNL1        0.0473
     20 C         143.7383  140.1883  161.8614 C.ar    1  UNL1       -0.0012
     21 C         144.7860  141.2562  161.9706 C.ar    1  UNL1       -0.0002
     22 C         145.4481  141.5253  163.2893 C.ar    1  UNL1       -0.0003
     23 C         145.0626  140.7265  164.4990 C.ar    1  UNL1       -0.0046
     24 C         144.0149  139.6586  164.3898 C.ar    1  UNL1       -0.0257
     25 C         143.6293  138.8597  165.5994 C.3     1  UNL1        0.0307
     26 C         143.3528  139.3895  163.0710 C.ar    1  UNL1       -0.0243
     27 C         141.7520  139.3811  157.9050 C.ar    1  UNL1        0.3201
     28 N         141.2025  140.4363  158.8187 N.ar    1  UNL1       -0.1927
     29 C         141.8647  140.7053  160.1375 C.ar    1  UNL1        0.1051
     30 C         143.0762  139.9193  160.5426 C.ar    1  UNL1        0.0383
     31 C         143.6256  138.8641  159.6290 C.ar    1  UNL1        0.1051
     32 N         142.9635  138.5950  158.3102 N.ar    1  UNL1       -0.1927
     33 C         140.1988  140.1489  155.9690 C.3     1  UNL1        0.2559
     34 O         141.0898  139.1121  156.5863 O.3     1  UNL1       -0.4426
@<TRIPOS>BOND
     1    33    34    1
     2    34    27    1
     3    27    28   ar
     4    28    29   ar
     5    29    30   ar
     6    30    20    1
     7    20    21   ar
     8    21    22   ar
     9    22    23   ar
    10    23    24   ar
    11    24    25    1
    12    24    26   ar
    13    26    19    1
    14    19     1    1
    15     1     2    1
    16     2     3   am
    17     3     4    2
    18     3     6    1
    19     6     7   ar
    20     7     8   ar
    21     8     9   ar
    22     9    12    1
    23    12    13    1
    24    13    14    1
    25    14    15    1
    26    15    16    1
    27    15    17    1
    28    15    18    1
    29     9    10   ar
    30    10    11   ar
    31    30    31   ar
    32    31    32   ar
    33    32    27   ar
    34    26    20   ar
    35    11     6   ar
    36     2     5    1
@<TRIPOS>MOLECULE
*****
 34 36 0 0 0
SMALL
GASTEIGER

@<TRIPOS>ATOM
      1 C         138.9329  142.6295  164.6136 C.3     1  UNL1        0.0944
      2 N         139.9806  142.6452  163.5401 N.am    1  UNL1       -0.3005
      3 C         139.7198  143.3610  162.2480 C.2     1  UNL1        0.2474
      4 O         138.4114  144.0611  162.0293 O.2     1  UNL1       -0.2701
      5 H         140.8393  142.1857  163.6836 H       1  UNL1        0.1498
      6 C         140.7674  143.3766  161.1746 C.ar    1  UNL1        0.0727
      7 C         141.3866  142.0910  160.7121 C.ar    1  UNL1        0.0109
      8 C         142.4342  142.1066  159.6387 C.ar    1  UNL1        0.0579
      9 C         142.8627  143.4078  159.0278 C.ar    1  UNL1        0.2249
     10 N         142.2435  144.6934  159.4902 N.ar    1  UNL1       -0.2100
     11 C         141.1958  144.6778  160.5636 C.ar    1  UNL1        0.1065
     12 O         143.9103  143.4235  157.9544 O.3     1  UNL1       -0.4599
     13 C         145.0553  142.4560  158.0097 C.3     1  UNL1        0.2159
     14 C         145.6255  141.8954  156.7407 C.3     1  UNL1        0.1505
     15 C         147.0783  142.0890  156.4214 C.3     1  UNL1        0.4014
     16 F         148.5311  142.2827  156.1021 F       1  UNL1       -0.1699
     17 F         146.9677  141.0874  155.3103 F       1  UNL1       -0.1699
     18 F         147.1890  143.0906  157.5324 F       1  UNL1       -0.1699
     19 C         138.0013  141.4602  164.7354 C.3     1  UNL1        0.0473
     20 C         139.1000  139.1502  165.1901 C.ar    1  UNL1       -0.0012
     21 C         139.5275  137.7969  164.7046 C.ar    1  UNL1       -0.0002
     22 C         139.2839  137.4003  163.2786 C.ar    1  UNL1       -0.0003
     23 C         138.6128  138.3570  162.3382 C.ar    1  UNL1       -0.0046
     24 C         138.1853  139.7103  162.8238 C.ar    1  UNL1       -0.0257
     25 C         137.5141  140.6670  161.8834 C.3     1  UNL1        0.0307
     26 C         138.4289  140.1069  164.2498 C.ar    1  UNL1       -0.0243
     27 C         139.8308  140.3400  169.4680 C.ar    1  UNL1        0.3201
     28 N         140.8655  140.6302  168.4216 N.ar    1  UNL1       -0.1927
     29 C         140.6219  140.2336  166.9956 C.ar    1  UNL1        0.1051
     30 C         139.3436  139.5468  166.6161 C.ar    1  UNL1        0.0383
     31 C         138.3089  139.2566  167.6625 C.ar    1  UNL1        0.1051
     32 N         138.5525  139.6532  169.0885 N.ar    1  UNL1       -0.1927
     33 C         140.9812  141.8896  171.2073 C.3     1  UNL1        0.2559
     34 O         140.0744  140.7366  170.8940 O.3     1  UNL1       -0.4426
@<TRIPOS>BOND
     1    33    34    1
     2    34    27    1
     3    27    28   ar
     4    28    29   ar
     5    29    30   ar
     6    30    20    1
     7    20    21   ar
     8    21    22   ar
     9    22    23   ar
    10    23    24   ar
    11    24    25    1
    12    24    26   ar
    13    26    19    1
    14    19     1    1
    15     1     2    1
    16     2     3   am
    17     3     4    2
    18     3     6    1
    19     6     7   ar
    20     7     8   ar
    21     8     9   ar
    22     9    12    1
    23    12    13    1
    24    13    14    1
    25    14    15    1
    26    15    16    1
    27    15    17    1
    28    15    18    1
    29     9    10   ar
    30    10    11   ar
    31    30    31   ar
    32    31    32   ar
    33    32    27   ar
    34    26    20   ar
    35    11     6   ar
    36     2     5    1
@<TRIPOS>MOLECULE
*****
 34 36 0 0 0
SMALL
GASTEIGER

@<TRIPOS>ATOM
      1 C         139.6948  142.0918  161.2560 C.3     1  UNL1        0.0944
      2 N         139.8906  141.5425  162.6381 N.am    1  UNL1       -0.3005
      3 C         138.8101  141.6977  163.6668 C.2     1  UNL1        0.2474
      4 O         137.5338  142.4021  163.3136 O.2     1  UNL1       -0.2701
      5 H         140.7283  141.0802  162.8699 H       1  UNL1        0.1498
      6 C         139.0060  141.1485  165.0488 C.ar    1  UNL1        0.0727
      7 C         139.8934  141.8660  166.0223 C.ar    1  UNL1        0.0109
      8 C         140.0893  141.3168  167.4043 C.ar    1  UNL1        0.0579
      9 C         139.3977  140.0500  167.8129 C.ar    1  UNL1        0.2249
     10 N         138.5102  139.3325  166.8395 N.ar    1  UNL1       -0.2100
     11 C         138.3143  139.8817  165.4574 C.ar    1  UNL1        0.1065
     12 O         139.5935  139.5007  169.1949 O.3     1  UNL1       -0.4599
     13 C         140.8020  139.8915  169.9930 C.3     1  UNL1        0.2159
     14 C         140.6918  140.9477  171.0523 C.3     1  UNL1        0.1505
     15 C         140.7054  142.3981  170.6697 C.3     1  UNL1        0.4014
     16 F         140.7191  143.8484  170.2871 F       1  UNL1       -0.1699
     17 F         139.2300  142.3422  170.4051 F       1  UNL1       -0.1699
     18 F         142.1808  142.4540  170.9343 F       1  UNL1       -0.1699
     19 C         140.4183  143.3361  160.8340 C.3     1  UNL1        0.0473
     20 C         142.9414  143.5229  161.4249 C.ar    1  UNL1       -0.0012
     21 C         144.0364  144.0818  162.2843 C.ar    1  UNL1       -0.0002
     22 C         143.7033  145.0128  163.4123 C.ar    1  UNL1       -0.0003
     23 C         142.2752  145.3849  163.6809 C.ar    1  UNL1       -0.0046
     24 C         141.1803  144.8260  162.8214 C.ar    1  UNL1       -0.0257
     25 C         139.7521  145.1980  163.0900 C.3     1  UNL1        0.0307
     26 C         141.5133  143.8950  161.6934 C.ar    1  UNL1       -0.0243
     27 C         143.9407  140.7301  158.0409 C.ar    1  UNL1        0.3201
     28 N         143.8726  140.2110  159.4465 N.ar    1  UNL1       -0.1927
     29 C         143.5395  141.1420  160.5745 C.ar    1  UNL1        0.1051
     30 C         143.2745  142.5920  160.2969 C.ar    1  UNL1        0.0383
     31 C         143.3426  143.1111  158.8912 C.ar    1  UNL1        0.1051
     32 N         143.6757  142.1801  157.7632 N.ar    1  UNL1       -0.1927
     33 C         145.3764  140.1442  155.9563 C.3     1  UNL1        0.2559
     34 O         144.2738  139.7991  156.9129 O.3     1  UNL1       -0.4426
@<TRIPOS>BOND
     1    33    34    1
     2    34    27    1
     3    27    28   ar
     4    28    29   ar
     5    29    30   ar
     6    30    20    1
     7    20    21   ar
     8    21    22   ar
     9    22    23   ar
    10    23    24   ar
    11    24    25    1
    12    24    26   ar
    13    26    19    1
    14    19     1    1
    15     1     2    1
    16     2     3   am
    17     3     4    2
    18     3     6    1
    19     6     7   ar
    20     7     8   ar
    21     8     9   ar
    22     9    12    1
    23    12    13    1
    24    13    14    1
    25    14    15    1
    26    15    16    1
    27    15    17    1
    28    15    18    1
    29     9    10   ar
    30    10    11   ar
    31    30    31   ar
    32    31    32   ar
    33    32    27   ar
    34    26    20   ar
    35    11     6   ar
    36     2     5    1
@<TRIPOS>MOLECULE
*****
 34 36 0 0 0
SMALL
GASTEIGER

@<TRIPOS>ATOM
      1 C         138.4656  139.2325  163.2846 C.3     1  UNL1        0.0944
      2 N         139.4811  139.6003  162.2436 N.am    1  UNL1       -0.3005
      3 C         140.5278  138.6074  161.8331 C.2     1  UNL1        0.2474
      4 O         140.5590  137.2467  162.4636 O.2     1  UNL1       -0.2701
      5 H         139.4606  140.4934  161.8298 H       1  UNL1        0.1498
      6 C         141.5432  138.9752  160.7922 C.ar    1  UNL1        0.0727
      7 C         142.6921  139.8713  161.1487 C.ar    1  UNL1        0.0109
      8 C         143.7075  140.2391  160.1078 C.ar    1  UNL1        0.0579
      9 C         143.5741  139.7108  158.7102 C.ar    1  UNL1        0.2249
     10 N         142.4252  138.8147  158.3536 N.ar    1  UNL1       -0.2100
     11 C         141.4098  138.4469  159.3946 C.ar    1  UNL1        0.1065
     12 O         144.5895  140.0786  157.6693 O.3     1  UNL1       -0.4599
     13 C         144.6281  141.4736  157.1191 C.3     1  UNL1        0.2159
     14 C         145.7120  142.4185  157.5461 C.3     1  UNL1        0.1505
     15 C         147.0159  142.4482  156.8051 C.3     1  UNL1        0.4014
     16 F         148.3198  142.4780  156.0641 F       1  UNL1       -0.1699
     17 F         147.6507  143.1783  157.9514 F       1  UNL1       -0.1699
     18 F         146.3811  141.7182  155.6588 F       1  UNL1       -0.1699
     19 C         137.9578  140.2735  164.2377 C.3     1  UNL1        0.0473
     20 C         139.5233  141.8702  165.5605 C.ar    1  UNL1       -0.0012
     21 C         140.3006  142.1932  166.8021 C.ar    1  UNL1       -0.0002
     22 C         140.2896  141.2427  167.9624 C.ar    1  UNL1       -0.0003
     23 C         139.5014  139.9691  167.8812 C.ar    1  UNL1       -0.0046
     24 C         138.7241  139.6461  166.6396 C.ar    1  UNL1       -0.0257
     25 C         137.9358  138.3724  166.5584 C.3     1  UNL1        0.0307
     26 C         138.7351  140.5966  165.4793 C.ar    1  UNL1       -0.0243
     27 C         139.5562  144.7218  162.0795 C.ar    1  UNL1        0.3201
     28 N         138.4238  144.7514  163.0626 N.ar    1  UNL1       -0.1927
     29 C         138.4128  143.8009  164.2230 C.ar    1  UNL1        0.1051
     30 C         139.5343  142.8207  164.4002 C.ar    1  UNL1        0.0383
     31 C         140.6668  142.7910  163.4170 C.ar    1  UNL1        0.1051
     32 N         140.6777  143.7416  162.2567 N.ar    1  UNL1       -0.1927
     33 C         140.3895  145.3624  159.7035 C.3     1  UNL1        0.2559
     34 O         139.5672  145.6723  160.9192 O.3     1  UNL1       -0.4426
@<TRIPOS>BOND
     1    33    34    1
     2    34    27    1
     3    27    28   ar
     4    28    29   ar
     5    29    30   ar
     6    30    20    1
     7    20    21   ar
     8    21    22   ar
     9    22    23   ar
    10    23    24   ar
    11    24    25    1
    12    24    26   ar
    13    26    19    1
    14    19     1    1
    15     1     2    1
    16     2     3   am
    17     3     4    2
    18     3     6    1
    19     6     7   ar
    20     7     8   ar
    21     8     9   ar
    22     9    12    1
    23    12    13    1
    24    13    14    1
    25    14    15    1
    26    15    16    1
    27    15    17    1
    28    15    18    1
    29     9    10   ar
    30    10    11   ar
    31    30    31   ar
    32    31    32   ar
    33    32    27   ar
    34    26    20   ar
    35    11     6   ar
    36     2     5    1
