@<TRIPOS>MOLECULE
*****
 25 27 0 0 0
SMALL
GASTEIGER

@<TRIPOS>ATOM
      1 N         142.6171  139.8021  165.7375 N.am    1  UNL1       -0.2413
      2 C         142.9330  138.6299  164.8565 C.3     1  UNL1        0.1212
      3 C         144.0746  139.0157  163.9632 C.3     1  UNL1        0.1169
      4 N         144.4642  140.4264  164.2922 N.am    1  UNL1       -0.2606
      5 C         143.5635  140.9123  165.3887 C.2     1  UNL1        0.3111
      6 O         143.6023  142.2702  166.0248 O.2     1  UNL1       -0.2520
      7 C         140.8308  140.1644  169.2628 C.ar    1  UNL1        0.1400
      8 C         139.3961  139.9600  168.8759 C.ar    1  UNL1        0.0370
      9 C         139.0350  139.7029  167.4429 C.ar    1  UNL1        0.0044
     10 C         140.1087  139.6503  166.3968 C.ar    1  UNL1        0.0152
     11 C         141.5434  139.8547  166.7837 C.ar    1  UNL1        0.0584
     12 C         141.9044  140.1118  168.2167 C.ar    1  UNL1        0.0518
     13 C         141.6047  141.7965  171.1302 C.3     1  UNL1        0.2525
     14 O         141.1918  140.4215  170.6958 O.3     1  UNL1       -0.4714
     15 C         145.5619  141.2129  163.6392 C.3     1  UNL1        0.1123
     16 C         145.2338  142.2172  162.5744 C.3     1  UNL1        0.0940
     17 N         143.9361  142.9677  162.6256 N.3     1  UNL1       -0.2688
     18 C         142.7076  142.3858  161.9917 C.3     1  UNL1        0.0897
     19 C         141.4099  143.1363  162.0429 C.3     1  UNL1        0.0896
     20 N         141.3407  144.4688  162.7281 N.3     1  UNL1       -0.2716
     21 C         142.5693  145.0508  163.3621 C.3     1  UNL1        0.0896
     22 C         143.8670  144.3002  163.3108 C.3     1  UNL1        0.0897
     23 C         140.0430  145.2194  162.7793 C.3     1  UNL1        0.0577
     24 C         139.0386  144.9087  163.8492 C.3     1  UNL1        0.0173
     25 C         139.7498  146.2808  161.7606 C.3     1  UNL1        0.0173
@<TRIPOS>BOND
     1    13    14    1
     2    14     7    1
     3     7     8   ar
     4     8     9   ar
     5     9    10   ar
     6    10    11   ar
     7    11     1    1
     8     1     2    1
     9     2     3    1
    10     3     4    1
    11     4    15    1
    12    15    16    1
    13    16    17    1
    14    17    18    1
    15    18    19    1
    16    19    20    1
    17    20    23    1
    18    23    24    1
    19    23    25    1
    20    20    21    1
    21    21    22    1
    22     4     5   am
    23     5     6    2
    24    11    12   ar
    25    12     7   ar
    26     5     1   am
    27    22    17    1
@<TRIPOS>MOLECULE
*****
 25 27 0 0 0
SMALL
GASTEIGER

@<TRIPOS>ATOM
      1 N         143.2342  140.2260  165.8518 N.am    1  UNL1       -0.2413
      2 C         143.3346  139.0649  164.9075 C.3     1  UNL1        0.1212
      3 C         144.0464  139.5318  163.6725 C.3     1  UNL1        0.1169
      4 N         144.3860  140.9817  163.8536 N.am    1  UNL1       -0.2606
      5 C         143.8840  141.4107  165.2004 C.2     1  UNL1        0.3111
      6 O         144.0098  142.7833  165.7920 O.2     1  UNL1       -0.2520
      7 C         140.9816  141.2575  168.9521 C.ar    1  UNL1        0.1400
      8 C         141.3198  140.1660  169.9238 C.ar    1  UNL1        0.0370
      9 C         142.2962  139.0945  169.5382 C.ar    1  UNL1        0.0044
     10 C         142.9343  139.1145  168.1809 C.ar    1  UNL1        0.0152
     11 C         142.5961  140.2060  167.2092 C.ar    1  UNL1        0.0584
     12 C         141.6197  141.2775  167.5948 C.ar    1  UNL1        0.0518
     13 C         140.5027  143.6462  169.8545 C.3     1  UNL1        0.2525
     14 O         140.0052  142.3289  169.3377 O.3     1  UNL1       -0.4714
     15 C         145.1018  141.8501  162.8618 C.3     1  UNL1        0.1123
     16 C         144.3665  142.9565  162.1654 C.3     1  UNL1        0.0940
     17 N         142.9880  143.3404  162.6155 N.3     1  UNL1       -0.2688
     18 C         141.8392  142.4009  162.3981 C.3     1  UNL1        0.0897
     19 C         140.4608  142.7848  162.8481 C.3     1  UNL1        0.0896
     20 N         140.2313  144.1082  163.5157 N.3     1  UNL1       -0.2716
     21 C         141.3801  145.0478  163.7332 C.3     1  UNL1        0.0896
     22 C         142.7585  144.6639  163.2831 C.3     1  UNL1        0.0897
     23 C         138.8528  144.4922  163.9658 C.3     1  UNL1        0.0577
     24 C         138.6234  144.9433  165.3778 C.3     1  UNL1        0.0173
     25 C         137.7038  144.4249  163.0038 C.3     1  UNL1        0.0173
@<TRIPOS>BOND
     1    13    14    1
     2    14     7    1
     3     7     8   ar
     4     8     9   ar
     5     9    10   ar
     6    10    11   ar
     7    11     1    1
     8     1     2    1
     9     2     3    1
    10     3     4    1
    11     4    15    1
    12    15    16    1
    13    16    17    1
    14    17    18    1
    15    18    19    1
    16    19    20    1
    17    20    23    1
    18    23    24    1
    19    23    25    1
    20    20    21    1
    21    21    22    1
    22     4     5   am
    23     5     6    2
    24    11    12   ar
    25    12     7   ar
    26     5     1   am
    27    22    17    1
@<TRIPOS>MOLECULE
*****
 25 27 0 0 0
SMALL
GASTEIGER

@<TRIPOS>ATOM
      1 N         140.2479  138.5472  163.8114 N.am    1  UNL1       -0.2413
      2 C         139.5326  138.4854  162.4943 C.3     1  UNL1        0.1212
      3 C         140.5453  138.1806  161.4307 C.3     1  UNL1        0.1169
      4 N         141.8866  138.0540  162.0904 N.am    1  UNL1       -0.2606
      5 C         141.7027  138.2806  163.5617 C.2     1  UNL1        0.3111
      6 O         142.7839  138.2466  164.6009 O.2     1  UNL1       -0.2520
      7 C         139.5726  140.1556  167.3761 C.ar    1  UNL1        0.1400
      8 C         138.3605  139.3855  167.8095 C.ar    1  UNL1        0.0370
      9 C         137.7776  138.3360  166.9102 C.ar    1  UNL1        0.0044
     10 C         138.4067  138.0566  165.5775 C.ar    1  UNL1        0.0152
     11 C         139.6187  138.8266  165.1441 C.ar    1  UNL1        0.0584
     12 C         140.2017  139.8761  166.0434 C.ar    1  UNL1        0.0518
     13 C         141.4040  140.9157  169.0548 C.3     1  UNL1        0.2525
     14 O         140.1556  141.2051  168.2754 O.3     1  UNL1       -0.4714
     15 C         143.1839  137.7535  161.3999 C.3     1  UNL1        0.1123
     16 C         144.1170  138.8707  161.0377 C.3     1  UNL1        0.0940
     17 N         144.1160  140.1385  161.8393 N.3     1  UNL1       -0.2688
     18 C         143.2993  141.3121  161.3856 C.3     1  UNL1        0.0897
     19 C         143.2982  142.5798  162.1872 C.3     1  UNL1        0.0896
     20 N         144.1138  142.6742  163.4425 N.3     1  UNL1       -0.2716
     21 C         144.9305  141.5006  163.8962 C.3     1  UNL1        0.0896
     22 C         144.9316  140.2328  163.0946 C.3     1  UNL1        0.0897
     23 C         144.1128  143.9420  164.2441 C.3     1  UNL1        0.0577
     24 C         144.7209  143.9630  165.6151 C.3     1  UNL1        0.0173
     25 C         143.5035  145.1889  163.6747 C.3     1  UNL1        0.0173
@<TRIPOS>BOND
     1    13    14    1
     2    14     7    1
     3     7     8   ar
     4     8     9   ar
     5     9    10   ar
     6    10    11   ar
     7    11     1    1
     8     1     2    1
     9     2     3    1
    10     3     4    1
    11     4    15    1
    12    15    16    1
    13    16    17    1
    14    17    18    1
    15    18    19    1
    16    19    20    1
    17    20    23    1
    18    23    24    1
    19    23    25    1
    20    20    21    1
    21    21    22    1
    22     4     5   am
    23     5     6    2
    24    11    12   ar
    25    12     7   ar
    26     5     1   am
    27    22    17    1
@<TRIPOS>MOLECULE
*****
 25 27 0 0 0
SMALL
GASTEIGER

@<TRIPOS>ATOM
      1 N         140.3192  139.4907  166.0624 N.am    1  UNL1       -0.2413
      2 C         141.4475  138.7109  165.4550 C.3     1  UNL1        0.1212
      3 C         140.9853  138.1833  164.1291 C.3     1  UNL1        0.1169
      4 N         139.5713  138.6371  163.9171 N.am    1  UNL1       -0.2606
      5 C         139.1597  139.4451  165.1120 C.2     1  UNL1        0.3111
      6 O         137.8232  140.0935  165.3198 O.2     1  UNL1       -0.2520
      7 C         141.4670  141.8734  169.0215 C.ar    1  UNL1        0.1400
      8 C         140.3992  141.5973  170.0381 C.ar    1  UNL1        0.0370
      9 C         139.3048  140.6190  169.7296 C.ar    1  UNL1        0.0044
     10 C         139.2781  139.9168  168.4044 C.ar    1  UNL1        0.0152
     11 C         140.3459  140.1929  167.3877 C.ar    1  UNL1        0.0584
     12 C         141.4403  141.1712  167.6963 C.ar    1  UNL1        0.0518
     13 C         143.8834  142.3613  169.8415 C.3     1  UNL1        0.2525
     14 O         142.5614  142.8517  169.3300 O.3     1  UNL1       -0.4714
     15 C         138.7187  138.3357  162.7203 C.3     1  UNL1        0.1123
     16 C         138.4614  139.4003  161.6955 C.3     1  UNL1        0.0940
     17 N         138.9551  140.7979  161.9257 N.3     1  UNL1       -0.2688
     18 C         138.0091  141.8577  162.4073 C.3     1  UNL1        0.0897
     19 C         138.5027  143.2552  162.6375 C.3     1  UNL1        0.0896
     20 N         139.9423  143.5931  162.3861 N.3     1  UNL1       -0.2716
     21 C         140.8883  142.5333  161.9045 C.3     1  UNL1        0.0896
     22 C         140.3947  141.1357  161.6743 C.3     1  UNL1        0.0897
     23 C         140.4360  144.9907  162.6164 C.3     1  UNL1        0.0577
     24 C         141.5076  145.2496  163.6335 C.3     1  UNL1        0.0173
     25 C         139.8580  146.1295  161.8293 C.3     1  UNL1        0.0173
@<TRIPOS>BOND
     1    13    14    1
     2    14     7    1
     3     7     8   ar
     4     8     9   ar
     5     9    10   ar
     6    10    11   ar
     7    11     1    1
     8     1     2    1
     9     2     3    1
    10     3     4    1
    11     4    15    1
    12    15    16    1
    13    16    17    1
    14    17    18    1
    15    18    19    1
    16    19    20    1
    17    20    23    1
    18    23    24    1
    19    23    25    1
    20    20    21    1
    21    21    22    1
    22     4     5   am
    23     5     6    2
    24    11    12   ar
    25    12     7   ar
    26     5     1   am
    27    22    17    1
@<TRIPOS>MOLECULE
*****
 25 27 0 0 0
SMALL
GASTEIGER

@<TRIPOS>ATOM
      1 N         143.4185  141.8956  160.5713 N.am    1  UNL1       -0.2413
      2 C         143.1905  141.1444  159.2931 C.3     1  UNL1        0.1212
      3 C         142.5823  142.0911  158.3012 C.3     1  UNL1        0.1169
      4 N         142.4344  143.4274  158.9665 N.am    1  UNL1       -0.2606
      5 C         142.9512  143.3065  160.3694 C.2     1  UNL1        0.3111
      6 O         142.9932  144.4040  161.3911 O.2     1  UNL1       -0.2520
      7 C         143.9611  139.5923  163.7573 C.ar    1  UNL1        0.1400
      8 C         145.1927  140.2116  164.3483 C.ar    1  UNL1        0.0370
      9 C         145.8330  141.3923  163.6804 C.ar    1  UNL1        0.0044
     10 C         145.2416  141.9536  162.4214 C.ar    1  UNL1        0.0152
     11 C         144.0099  141.3342  161.8304 C.ar    1  UNL1        0.0584
     12 C         143.3697  140.1536  162.4983 C.ar    1  UNL1        0.0518
     13 C         141.8389  138.3930  164.6561 C.3     1  UNL1        0.2525
     14 O         143.3209  138.4116  164.4252 O.3     1  UNL1       -0.4714
     15 C         141.8689  144.6670  158.3389 C.3     1  UNL1        0.1123
     16 C         140.4971  145.1407  158.7180 C.3     1  UNL1        0.0940
     17 N         139.9515  144.8431  160.0832 N.3     1  UNL1       -0.2688
     18 C         140.0246  145.8817  161.1629 C.3     1  UNL1        0.0897
     19 C         139.4790  145.5841  162.5280 C.3     1  UNL1        0.0896
     20 N         138.8602  144.2478  162.8134 N.3     1  UNL1       -0.2716
     21 C         138.7872  143.2092  161.7337 C.3     1  UNL1        0.0896
     22 C         139.3328  143.5068  160.3685 C.3     1  UNL1        0.0897
     23 C         138.3146  143.9502  164.1786 C.3     1  UNL1        0.0577
     24 C         137.5114  142.7047  164.4101 C.3     1  UNL1        0.0173
     25 C         138.5722  144.8981  165.3123 C.3     1  UNL1        0.0173
@<TRIPOS>BOND
     1    13    14    1
     2    14     7    1
     3     7     8   ar
     4     8     9   ar
     5     9    10   ar
     6    10    11   ar
     7    11     1    1
     8     1     2    1
     9     2     3    1
    10     3     4    1
    11     4    15    1
    12    15    16    1
    13    16    17    1
    14    17    18    1
    15    18    19    1
    16    19    20    1
    17    20    23    1
    18    23    24    1
    19    23    25    1
    20    20    21    1
    21    21    22    1
    22     4     5   am
    23     5     6    2
    24    11    12   ar
    25    12     7   ar
    26     5     1   am
    27    22    17    1
@<TRIPOS>MOLECULE
*****
 25 27 0 0 0
SMALL
GASTEIGER

@<TRIPOS>ATOM
      1 N         141.0637  142.9277  165.8489 N.am    1  UNL1       -0.2413
      2 C         142.4182  142.8535  165.2084 C.3     1  UNL1        0.1212
      3 C         142.4295  143.7915  164.0380 C.3     1  UNL1        0.1169
      4 N         141.0821  144.4455  163.9551 N.am    1  UNL1       -0.2606
      5 C         140.2380  143.9116  165.0742 C.2     1  UNL1        0.3111
      6 O         138.8176  144.2944  165.3673 O.2     1  UNL1       -0.2520
      7 C         139.2780  140.1813  168.0892 C.ar    1  UNL1        0.1400
      8 C         139.7147  140.6060  169.4599 C.ar    1  UNL1        0.0370
      9 C         140.6010  141.8045  169.6270 C.ar    1  UNL1        0.0044
     10 C         141.0507  142.5784  168.4233 C.ar    1  UNL1        0.0152
     11 C         140.6141  142.1538  167.0526 C.ar    1  UNL1        0.0584
     12 C         139.7277  140.9552  166.8855 C.ar    1  UNL1        0.0518
     13 C         137.9438  138.5663  166.5525 C.3     1  UNL1        0.2525
     14 O         138.3917  138.9828  167.9221 O.3     1  UNL1       -0.4714
     15 C         140.6539  145.4559  162.9325 C.3     1  UNL1        0.1123
     16 C         139.8243  145.0291  161.7579 C.3     1  UNL1        0.0940
     17 N         139.5516  143.5731  161.5218 N.3     1  UNL1       -0.2688
     18 C         138.2340  142.9815  161.9267 C.3     1  UNL1        0.0897
     19 C         137.9614  141.5256  161.6905 C.3     1  UNL1        0.0896
     20 N         139.0063  140.6612  161.0495 N.3     1  UNL1       -0.2716
     21 C         140.3239  141.2528  160.6446 C.3     1  UNL1        0.0896
     22 C         140.5966  142.7088  160.8808 C.3     1  UNL1        0.0897
     23 C         138.7336  139.2052  160.8134 C.3     1  UNL1        0.0577
     24 C         139.4642  138.4718  159.7279 C.3     1  UNL1        0.0173
     25 C         137.7303  138.4827  161.6628 C.3     1  UNL1        0.0173
@<TRIPOS>BOND
     1    13    14    1
     2    14     7    1
     3     7     8   ar
     4     8     9   ar
     5     9    10   ar
     6    10    11   ar
     7    11     1    1
     8     1     2    1
     9     2     3    1
    10     3     4    1
    11     4    15    1
    12    15    16    1
    13    16    17    1
    14    17    18    1
    15    18    19    1
    16    19    20    1
    17    20    23    1
    18    23    24    1
    19    23    25    1
    20    20    21    1
    21    21    22    1
    22     4     5   am
    23     5     6    2
    24    11    12   ar
    25    12     7   ar
    26     5     1   am
    27    22    17    1
@<TRIPOS>MOLECULE
*****
 25 27 0 0 0
SMALL
GASTEIGER

@<TRIPOS>ATOM
      1 N         143.0650  140.3430  166.0032 N.am    1  UNL1       -0.2413
      2 C         143.5529  139.0798  165.3578 C.3     1  UNL1        0.1212
      3 C         144.5221  139.4561  164.2767 C.3     1  UNL1        0.1169
      4 N         144.6333  140.9519  164.2539 N.am    1  UNL1       -0.2606
      5 C         143.7327  141.4999  165.3210 C.2     1  UNL1        0.3111
      6 O         143.5347  142.9503  165.6482 O.2     1  UNL1       -0.2520
      7 C         139.7500  139.8799  168.1354 C.ar    1  UNL1        0.1400
      8 C         140.1159  140.6137  169.3914 C.ar    1  UNL1        0.0370
      9 C         141.4650  141.2572  169.5180 C.ar    1  UNL1        0.0044
     10 C         142.4480  141.1670  168.3887 C.ar    1  UNL1        0.0152
     11 C         142.0820  140.4332  167.1327 C.ar    1  UNL1        0.0584
     12 C         140.7330  139.7897  167.0060 C.ar    1  UNL1        0.0518
     13 C         137.9226  138.7542  166.6714 C.3     1  UNL1        0.2525
     14 O         138.4010  139.2363  168.0088 O.3     1  UNL1       -0.4714
     15 C         145.4939  141.7580  163.3267 C.3     1  UNL1        0.1123
     16 C         144.8659  142.5464  162.2159 C.3     1  UNL1        0.0940
     17 N         143.3771  142.7241  162.1709 N.3     1  UNL1       -0.2688
     18 C         142.7724  144.0641  162.4685 C.3     1  UNL1        0.0897
     19 C         141.2837  144.2417  162.4235 C.3     1  UNL1        0.0896
     20 N         140.3997  143.0794  162.0808 N.3     1  UNL1       -0.2716
     21 C         141.0044  141.7394  161.7832 C.3     1  UNL1        0.0896
     22 C         142.4932  141.5617  161.8282 C.3     1  UNL1        0.0897
     23 C         138.9109  143.2570  162.0358 C.3     1  UNL1        0.0577
     24 C         138.2369  144.1860  163.0015 C.3     1  UNL1        0.0173
     25 C         138.0961  142.5057  161.0249 C.3     1  UNL1        0.0173
@<TRIPOS>BOND
     1    13    14    1
     2    14     7    1
     3     7     8   ar
     4     8     9   ar
     5     9    10   ar
     6    10    11   ar
     7    11     1    1
     8     1     2    1
     9     2     3    1
    10     3     4    1
    11     4    15    1
    12    15    16    1
    13    16    17    1
    14    17    18    1
    15    18    19    1
    16    19    20    1
    17    20    23    1
    18    23    24    1
    19    23    25    1
    20    20    21    1
    21    21    22    1
    22     4     5   am
    23     5     6    2
    24    11    12   ar
    25    12     7   ar
    26     5     1   am
    27    22    17    1
@<TRIPOS>MOLECULE
*****
 25 27 0 0 0
SMALL
GASTEIGER

@<TRIPOS>ATOM
      1 N         140.3566  138.5506  164.0820 N.am    1  UNL1       -0.2413
      2 C         138.9449  138.0435  164.0787 C.3     1  UNL1        0.1212
      3 C         138.4957  137.9320  162.6519 C.3     1  UNL1        0.1169
      4 N         139.6299  138.3701  161.7733 N.am    1  UNL1       -0.2606
      5 C         140.7799  138.7525  162.6572 C.2     1  UNL1        0.3111
      6 O         142.1183  139.2494  162.1970 O.2     1  UNL1       -0.2520
      7 C         141.5331  139.9787  167.5929 C.ar    1  UNL1        0.1400
      8 C         142.8787  139.3296  167.7264 C.ar    1  UNL1        0.0370
      9 C         143.3837  138.4208  166.6452 C.ar    1  UNL1        0.0044
     10 C         142.5430  138.1611  165.4303 C.ar    1  UNL1        0.0152
     11 C         141.1974  138.8103  165.2968 C.ar    1  UNL1        0.0584
     12 C         140.6924  139.7190  166.3781 C.ar    1  UNL1        0.0518
     13 C         140.4948  142.2451  168.3244 C.3     1  UNL1        0.2525
     14 O         141.0282  140.8875  168.6741 O.3     1  UNL1       -0.4714
     15 C         139.6163  138.4176  160.2741 C.3     1  UNL1        0.1123
     16 C         139.3078  139.7041  159.5672 C.3     1  UNL1        0.0940
     17 N         139.3362  141.0001  160.3220 N.3     1  UNL1       -0.2688
     18 C         138.1012  141.4896  161.0186 C.3     1  UNL1        0.0897
     19 C         138.1296  142.7855  161.7734 C.3     1  UNL1        0.0896
     20 N         139.3930  143.5920  161.8315 N.3     1  UNL1       -0.2716
     21 C         140.6279  143.1026  161.1349 C.3     1  UNL1        0.0896
     22 C         140.5995  141.8066  160.3801 C.3     1  UNL1        0.0897
     23 C         139.4214  144.8880  162.5863 C.3     1  UNL1        0.0577
     24 C         139.1593  144.9017  164.0631 C.3     1  UNL1        0.0173
     25 C         139.7119  146.1703  161.8641 C.3     1  UNL1        0.0173
@<TRIPOS>BOND
     1    13    14    1
     2    14     7    1
     3     7     8   ar
     4     8     9   ar
     5     9    10   ar
     6    10    11   ar
     7    11     1    1
     8     1     2    1
     9     2     3    1
    10     3     4    1
    11     4    15    1
    12    15    16    1
    13    16    17    1
    14    17    18    1
    15    18    19    1
    16    19    20    1
    17    20    23    1
    18    23    24    1
    19    23    25    1
    20    20    21    1
    21    21    22    1
    22     4     5   am
    23     5     6    2
    24    11    12   ar
    25    12     7   ar
    26     5     1   am
    27    22    17    1
@<TRIPOS>MOLECULE
*****
 25 27 0 0 0
SMALL
GASTEIGER

@<TRIPOS>ATOM
      1 N         140.9567  143.0313  165.5704 N.am    1  UNL1       -0.2413
      2 C         140.1010  143.9288  164.7265 C.3     1  UNL1        0.1212
      3 C         141.0016  144.6916  163.8007 C.3     1  UNL1        0.1169
      4 N         142.4140  144.2653  164.0725 N.am    1  UNL1       -0.2606
      5 C         142.3861  143.2392  165.1662 C.2     1  UNL1        0.3111
      6 O         143.5785  142.5433  165.7527 O.2     1  UNL1       -0.2520
      7 C         140.1527  141.5001  169.1424 C.ar    1  UNL1        0.1400
      8 C         139.4923  140.2100  168.7557 C.ar    1  UNL1        0.0370
      9 C         139.3200  139.8604  167.3073 C.ar    1  UNL1        0.0044
     10 C         139.8081  140.8007  166.2455 C.ar    1  UNL1        0.0152
     11 C         140.4685  142.0908  166.6322 C.ar    1  UNL1        0.0584
     12 C         140.6408  142.4405  168.0807 C.ar    1  UNL1        0.0518
     13 C         141.6819  141.7706  171.2253 C.3     1  UNL1        0.2525
     14 O         140.3250  141.8497  170.5909 O.3     1  UNL1       -0.4714
     15 C         143.6390  144.7757  163.3732 C.3     1  UNL1        0.1123
     16 C         144.3989  143.8790  162.4413 C.3     1  UNL1        0.0940
     17 N         143.9161  142.4823  162.1842 N.3     1  UNL1       -0.2688
     18 C         144.6944  141.3115  162.7071 C.3     1  UNL1        0.0897
     19 C         144.2116  139.9149  162.4500 C.3     1  UNL1        0.0896
     20 N         142.9504  139.6890  161.6700 N.3     1  UNL1       -0.2716
     21 C         142.1721  140.8598  161.1471 C.3     1  UNL1        0.0896
     22 C         142.6550  142.2565  161.4042 C.3     1  UNL1        0.0897
     23 C         142.4676  138.2923  161.4128 C.3     1  UNL1        0.0577
     24 C         142.9829  137.5263  160.2306 C.3     1  UNL1        0.0173
     25 C         141.4693  137.6616  162.3380 C.3     1  UNL1        0.0173
@<TRIPOS>BOND
     1    13    14    1
     2    14     7    1
     3     7     8   ar
     4     8     9   ar
     5     9    10   ar
     6    10    11   ar
     7    11     1    1
     8     1     2    1
     9     2     3    1
    10     3     4    1
    11     4    15    1
    12    15    16    1
    13    16    17    1
    14    17    18    1
    15    18    19    1
    16    19    20    1
    17    20    23    1
    18    23    24    1
    19    23    25    1
    20    20    21    1
    21    21    22    1
    22     4     5   am
    23     5     6    2
    24    11    12   ar
    25    12     7   ar
    26     5     1   am
    27    22    17    1
