@<TRIPOS>MOLECULE
*****
 21 23 0 0 0
SMALL
GASTEIGER

@<TRIPOS>ATOM
      1 C         139.2254  139.4344  166.6367 C.ar    1  UNL1        0.0218
      2 C         138.0858  139.0331  167.5258 C.ar    1  UNL1        0.0989
      3 N         138.0820  139.4393  168.9697 N.ar    1  UNL1       -0.2426
      4 C         139.2179  140.2468  169.5246 C.ar    1  UNL1        0.0959
      5 C         140.3574  140.6481  168.6356 C.ar    1  UNL1        0.0112
      6 C         140.3612  140.2418  167.1916 C.ar    1  UNL1        0.0002
      7 C         138.4964  139.8558  164.1789 C.ar    1  UNL1        0.1409
      8 C         138.5001  139.4496  162.7350 C.ar    1  UNL1        0.0665
      9 C         139.2367  138.2157  162.3049 C.ar    1  UNL1        0.1432
     10 F         139.2404  137.8094  160.8609 F       1  UNL1       -0.2041
     11 C         139.9695  137.3880  163.3188 C.ar    1  UNL1        0.0298
     12 C         139.9657  137.7942  164.7627 C.ar    1  UNL1        0.0054
     13 C         139.2291  139.0282  165.1927 C.ar    1  UNL1        0.0356
     14 C         137.7838  142.3165  163.7461 C.3     1  UNL1        0.2525
     15 O         137.7598  141.0898  164.6089 O.3     1  UNL1       -0.4714
     16 C         141.4932  141.4555  169.1905 C.3     1  UNL1        0.0784
     17 C         142.9449  141.2819  168.8551 C.3     1  UNL1        0.0217
     18 C         143.7256  142.2975  169.6356 C.3     1  UNL1        0.0188
     19 C         142.7564  143.0987  170.4533 C.3     1  UNL1        0.0688
     20 N         141.3767  142.5784  170.1783 N.3     1  UNL1       -0.2951
     21 H         140.7972  143.3224  169.7898 H       1  UNL1        0.1235
@<TRIPOS>BOND
     1    14    15    1
     2    15     7    1
     3     7     8   ar
     4     8     9   ar
     5     9    10    1
     6     9    11   ar
     7    11    12   ar
     8    12    13   ar
     9    13     1    1
    10     1     2   ar
    11     2     3   ar
    12     3     4   ar
    13     4     5   ar
    14     5    16    1
    15    16    17    1
    16    17    18    1
    17    18    19    1
    18    19    20    1
    19     5     6   ar
    20    13     7   ar
    21     6     1   ar
    22    20    16    1
    23    20    21    1
@<TRIPOS>MOLECULE
*****
 21 23 0 0 0
SMALL
GASTEIGER

@<TRIPOS>ATOM
      1 C         140.0281  140.2117  168.0336 C.ar    1  UNL1        0.0218
      2 C         138.7579  139.7296  168.6692 C.ar    1  UNL1        0.0989
      3 N         137.8403  138.8158  167.9122 N.ar    1  UNL1       -0.2426
      4 C         138.1930  138.3841  166.5196 C.ar    1  UNL1        0.0959
      5 C         139.4633  138.8663  165.8840 C.ar    1  UNL1        0.0112
      6 C         140.3809  139.7801  166.6411 C.ar    1  UNL1        0.0002
      7 C         142.2865  140.6321  169.2473 C.ar    1  UNL1        0.1409
      8 C         143.2040  141.5459  170.0044 C.ar    1  UNL1        0.0665
      9 C         142.7806  142.9532  170.3047 C.ar    1  UNL1        0.1432
     10 F         143.6982  143.8671  171.0618 F       1  UNL1       -0.2041
     11 C         141.4398  143.4467  169.8481 C.ar    1  UNL1        0.0298
     12 C         140.5223  142.5329  169.0910 C.ar    1  UNL1        0.0054
     13 C         140.9457  141.1256  168.7907 C.ar    1  UNL1        0.0356
     14 C         142.8806  138.2383  170.0640 C.3     1  UNL1        0.2525
     15 O         142.7099  139.2248  168.9470 O.3     1  UNL1       -0.4714
     16 C         139.8160  138.4346  164.4915 C.3     1  UNL1        0.0784
     17 C         141.0483  137.6807  164.0876 C.3     1  UNL1        0.0217
     18 C         140.9923  137.4613  162.6048 C.3     1  UNL1        0.0188
     19 C         139.7254  138.0796  162.0923 C.3     1  UNL1        0.0688
     20 N         138.9984  138.6811  163.2583 N.3     1  UNL1       -0.2951
     21 H         138.0820  138.2444  163.3576 H       1  UNL1        0.1235
@<TRIPOS>BOND
     1    14    15    1
     2    15     7    1
     3     7     8   ar
     4     8     9   ar
     5     9    10    1
     6     9    11   ar
     7    11    12   ar
     8    12    13   ar
     9    13     1    1
    10     1     2   ar
    11     2     3   ar
    12     3     4   ar
    13     4     5   ar
    14     5    16    1
    15    16    17    1
    16    17    18    1
    17    18    19    1
    18    19    20    1
    19     5     6   ar
    20    13     7   ar
    21     6     1   ar
    22    20    16    1
    23    20    21    1
@<TRIPOS>MOLECULE
*****
 21 23 0 0 0
SMALL
GASTEIGER

@<TRIPOS>ATOM
      1 C         141.7708  142.5451  166.2073 C.ar    1  UNL1        0.0218
      2 C         143.2669  142.4393  166.2303 C.ar    1  UNL1        0.0989
      3 N         144.0812  143.0871  165.1500 N.ar    1  UNL1       -0.2426
      4 C         143.3995  143.8407  164.0466 C.ar    1  UNL1        0.0959
      5 C         141.9034  143.9465  164.0236 C.ar    1  UNL1        0.0112
      6 C         141.0891  143.2987  165.1040 C.ar    1  UNL1        0.0002
      7 C         140.3091  140.5665  167.0431 C.ar    1  UNL1        0.1409
      8 C         139.4948  139.9187  168.1235 C.ar    1  UNL1        0.0665
      9 C         139.3278  140.6018  169.4485 C.ar    1  UNL1        0.1432
     10 F         138.5134  139.9539  170.5289 F       1  UNL1       -0.2041
     11 C         139.9752  141.9326  169.6931 C.ar    1  UNL1        0.0298
     12 C         140.7895  142.5803  168.6127 C.ar    1  UNL1        0.0054
     13 C         140.9564  141.8973  167.2877 C.ar    1  UNL1        0.0356
     14 C         141.5376  138.8386  165.5415 C.3     1  UNL1        0.2525
     15 O         140.4760  139.8835  165.7181 O.3     1  UNL1       -0.4714
     16 C         141.2217  144.7000  162.9203 C.3     1  UNL1        0.0784
     17 C         141.4454  144.5046  161.4500 C.3     1  UNL1        0.0217
     18 C         140.5585  145.4651  160.7145 C.3     1  UNL1        0.0188
     19 C         139.7867  146.2542  161.7303 C.3     1  UNL1        0.0688
     20 N         140.1966  145.7813  163.0935 N.3     1  UNL1       -0.2951
     21 H         139.3856  145.4129  163.5905 H       1  UNL1        0.1235
@<TRIPOS>BOND
     1    14    15    1
     2    15     7    1
     3     7     8   ar
     4     8     9   ar
     5     9    10    1
     6     9    11   ar
     7    11    12   ar
     8    12    13   ar
     9    13     1    1
    10     1     2   ar
    11     2     3   ar
    12     3     4   ar
    13     4     5   ar
    14     5    16    1
    15    16    17    1
    16    17    18    1
    17    18    19    1
    18    19    20    1
    19     5     6   ar
    20    13     7   ar
    21     6     1   ar
    22    20    16    1
    23    20    21    1
@<TRIPOS>MOLECULE
*****
 21 23 0 0 0
SMALL
GASTEIGER

@<TRIPOS>ATOM
      1 C         138.6878  139.7370  165.9120 C.ar    1  UNL1        0.0218
      2 C         137.7708  138.9878  166.8327 C.ar    1  UNL1        0.0989
      3 N         137.9853  139.0465  168.3161 N.ar    1  UNL1       -0.2426
      4 C         139.1170  139.8545  168.8789 C.ar    1  UNL1        0.0959
      5 C         140.0341  140.6036  167.9582 C.ar    1  UNL1        0.0112
      6 C         139.8195  140.5449  166.4747 C.ar    1  UNL1        0.0002
      7 C         138.9113  138.4702  163.6547 C.ar    1  UNL1        0.1409
      8 C         138.6967  138.4115  162.1713 C.ar    1  UNL1        0.0665
      9 C         138.0440  139.5607  161.4618 C.ar    1  UNL1        0.1432
     10 F         137.8294  139.5020  159.9784 F       1  UNL1       -0.2041
     11 C         137.6060  140.7687  162.2357 C.ar    1  UNL1        0.0298
     12 C         137.8206  140.8274  163.7191 C.ar    1  UNL1        0.0054
     13 C         138.4732  139.6782  164.4286 C.ar    1  UNL1        0.0356
     14 C         141.0593  137.2485  164.4568 C.3     1  UNL1        0.2525
     15 O         139.5639  137.3210  164.3641 O.3     1  UNL1       -0.4714
     16 C         141.1657  141.4115  168.5208 C.3     1  UNL1        0.0784
     17 C         142.5438  141.5233  167.9392 C.3     1  UNL1        0.0217
     18 C         143.3478  142.4304  168.8228 C.3     1  UNL1        0.0188
     19 C         142.4665  142.8792  169.9507 C.3     1  UNL1        0.0688
     20 N         141.1179  142.2495  169.7640 N.3     1  UNL1       -0.2951
     21 H         140.4078  142.9750  169.6653 H       1  UNL1        0.1235
@<TRIPOS>BOND
     1    14    15    1
     2    15     7    1
     3     7     8   ar
     4     8     9   ar
     5     9    10    1
     6     9    11   ar
     7    11    12   ar
     8    12    13   ar
     9    13     1    1
    10     1     2   ar
    11     2     3   ar
    12     3     4   ar
    13     4     5   ar
    14     5    16    1
    15    16    17    1
    16    17    18    1
    17    18    19    1
    18    19    20    1
    19     5     6   ar
    20    13     7   ar
    21     6     1   ar
    22    20    16    1
    23    20    21    1
@<TRIPOS>MOLECULE
*****
 21 23 0 0 0
SMALL
GASTEIGER

@<TRIPOS>ATOM
      1 C         143.0676  142.6888  165.9324 C.ar    1  UNL1        0.0218
      2 C         144.4179  143.2836  165.6621 C.ar    1  UNL1        0.0989
      3 N         144.5678  144.3696  164.6384 N.ar    1  UNL1       -0.2426
      4 C         143.3674  144.8609  163.8848 C.ar    1  UNL1        0.0959
      5 C         142.0171  144.2661  164.1550 C.ar    1  UNL1        0.0112
      6 C         141.8672  143.1801  165.1788 C.ar    1  UNL1        0.0002
      7 C         142.9112  140.1650  166.5289 C.ar    1  UNL1        0.1409
      8 C         142.7613  139.0790  167.5527 C.ar    1  UNL1        0.0665
      9 C         142.6179  139.4309  169.0037 C.ar    1  UNL1        0.1432
     10 F         142.4681  138.3448  170.0276 F       1  UNL1       -0.2041
     11 C         142.6244  140.8687  169.4310 C.ar    1  UNL1        0.0298
     12 C         142.7743  141.9546  168.4072 C.ar    1  UNL1        0.0054
     13 C         142.9177  141.6028  166.9562 C.ar    1  UNL1        0.0356
     14 C         144.3889  139.3938  164.5360 C.3     1  UNL1        0.2525
     15 O         143.0546  139.8131  165.0778 O.3     1  UNL1       -0.4714
     16 C         140.8168  144.7573  163.4015 C.3     1  UNL1        0.0784
     17 C         139.4542  144.1301  163.4080 C.3     1  UNL1        0.0217
     18 C         138.5635  144.9472  162.5197 C.3     1  UNL1        0.0188
     19 C         139.3757  146.0794  161.9642 C.3     1  UNL1        0.0688
     20 N         140.7682  145.9621  162.5092 N.3     1  UNL1       -0.2951
     21 H         141.0023  146.7985  163.0440 H       1  UNL1        0.1235
@<TRIPOS>BOND
     1    14    15    1
     2    15     7    1
     3     7     8   ar
     4     8     9   ar
     5     9    10    1
     6     9    11   ar
     7    11    12   ar
     8    12    13   ar
     9    13     1    1
    10     1     2   ar
    11     2     3   ar
    12     3     4   ar
    13     4     5   ar
    14     5    16    1
    15    16    17    1
    16    17    18    1
    17    18    19    1
    18    19    20    1
    19     5     6   ar
    20    13     7   ar
    21     6     1   ar
    22    20    16    1
    23    20    21    1
@<TRIPOS>MOLECULE
*****
 21 23 0 0 0
SMALL
GASTEIGER

@<TRIPOS>ATOM
      1 C         139.8488  142.8019  165.6640 C.ar    1  UNL1        0.0218
      2 C         139.1458  144.1126  165.4694 C.ar    1  UNL1        0.0989
      3 N         138.0995  144.2515  164.4037 N.ar    1  UNL1       -0.2426
      4 C         137.7561  143.0797  163.5324 C.ar    1  UNL1        0.0959
      5 C         138.4591  141.7690  163.7270 C.ar    1  UNL1        0.0112
      6 C         139.5055  141.6301  164.7928 C.ar    1  UNL1        0.0002
      7 C         142.3210  142.3927  166.3504 C.ar    1  UNL1        0.1409
      8 C         143.3673  142.2539  167.4162 C.ar    1  UNL1        0.0665
      9 C         142.9878  142.3853  168.8614 C.ar    1  UNL1        0.1432
     10 F         144.0341  142.2464  169.9272 F       1  UNL1       -0.2041
     11 C         141.5620  142.6556  169.2408 C.ar    1  UNL1        0.0298
     12 C         140.5157  142.7945  168.1750 C.ar    1  UNL1        0.0054
     13 C         140.8952  142.6630  166.7298 C.ar    1  UNL1        0.0356
     14 C         144.0686  141.7737  164.5303 C.3     1  UNL1        0.2525
     15 O         142.7005  142.2613  164.9051 O.3     1  UNL1       -0.4714
     16 C         138.1158  140.5972  162.8558 C.3     1  UNL1        0.0784
     17 C         138.5273  139.1739  163.0900 C.3     1  UNL1        0.0217
     18 C         137.9665  138.3400  161.9764 C.3     1  UNL1        0.0188
     19 C         137.2085  139.2480  161.0539 C.3     1  UNL1        0.0688
     20 N         137.3007  140.6430  161.5974 N.3     1  UNL1       -0.2951
     21 H         136.3664  140.9970  161.8029 H       1  UNL1        0.1235
@<TRIPOS>BOND
     1    14    15    1
     2    15     7    1
     3     7     8   ar
     4     8     9   ar
     5     9    10    1
     6     9    11   ar
     7    11    12   ar
     8    12    13   ar
     9    13     1    1
    10     1     2   ar
    11     2     3   ar
    12     3     4   ar
    13     4     5   ar
    14     5    16    1
    15    16    17    1
    16    17    18    1
    17    18    19    1
    18    19    20    1
    19     5     6   ar
    20    13     7   ar
    21     6     1   ar
    22    20    16    1
    23    20    21    1
@<TRIPOS>MOLECULE
*****
 21 23 0 0 0
SMALL
GASTEIGER

@<TRIPOS>ATOM
      1 C         141.2019  139.7947  166.6839 C.ar    1  UNL1        0.0218
      2 C         142.5343  139.1113  166.7716 C.ar    1  UNL1        0.0989
      3 N         143.0011  138.2314  165.6501 N.ar    1  UNL1       -0.2426
      4 C         142.1355  138.0349  164.4408 C.ar    1  UNL1        0.0959
      5 C         140.8032  138.7183  164.3532 C.ar    1  UNL1        0.0112
      6 C         140.3363  139.5982  165.4748 C.ar    1  UNL1        0.0002
      7 C         140.9577  142.1565  167.7387 C.ar    1  UNL1        0.1409
      8 C         140.4909  143.0363  168.8603 C.ar    1  UNL1        0.0665
      9 C         139.8015  142.4343  170.0487 C.ar    1  UNL1        0.1432
     10 F         139.3347  143.3142  171.1703 F       1  UNL1       -0.2041
     11 C         139.5789  140.9524  170.1155 C.ar    1  UNL1        0.0298
     12 C         140.0457  140.0726  168.9939 C.ar    1  UNL1        0.0054
     13 C         140.7351  140.6746  167.8055 C.ar    1  UNL1        0.0356
     14 C         140.8391  143.2813  165.3997 C.3     1  UNL1        0.2525
     15 O         141.6471  142.7585  166.5503 O.3     1  UNL1       -0.4714
     16 C         139.9376  138.5219  163.1440 C.3     1  UNL1        0.0784
     17 C         138.4448  138.6606  163.0963 C.3     1  UNL1        0.0217
     18 C         137.9974  138.3766  161.6930 C.3     1  UNL1        0.0188
     19 C         139.2138  138.0624  160.8734 C.3     1  UNL1        0.0688
     20 N         140.4129  138.1521  161.7702 N.3     1  UNL1       -0.2951
     21 H         141.0531  138.8656  161.4217 H       1  UNL1        0.1235
@<TRIPOS>BOND
     1    14    15    1
     2    15     7    1
     3     7     8   ar
     4     8     9   ar
     5     9    10    1
     6     9    11   ar
     7    11    12   ar
     8    12    13   ar
     9    13     1    1
    10     1     2   ar
    11     2     3   ar
    12     3     4   ar
    13     4     5   ar
    14     5    16    1
    15    16    17    1
    16    17    18    1
    17    18    19    1
    18    19    20    1
    19     5     6   ar
    20    13     7   ar
    21     6     1   ar
    22    20    16    1
    23    20    21    1
@<TRIPOS>MOLECULE
*****
 21 23 0 0 0
SMALL
GASTEIGER

@<TRIPOS>ATOM
      1 C         141.4393  142.2808  166.6429 C.ar    1  UNL1        0.0218
      2 C         142.9290  142.1828  166.7882 C.ar    1  UNL1        0.0989
      3 N         143.8256  142.8538  165.7904 N.ar    1  UNL1       -0.2426
      4 C         143.2325  143.6229  164.6471 C.ar    1  UNL1        0.0959
      5 C         141.7428  143.7209  164.5018 C.ar    1  UNL1        0.0112
      6 C         140.8462  143.0498  165.4998 C.ar    1  UNL1        0.0002
      7 C         140.3797  142.1922  169.0135 C.ar    1  UNL1        0.1409
      8 C         139.4831  141.5211  170.0113 C.ar    1  UNL1        0.0665
      9 C         138.7494  140.2676  169.6365 C.ar    1  UNL1        0.1432
     10 F         137.8528  139.5965  170.6344 F       1  UNL1       -0.2041
     11 C         138.9124  139.6852  168.2639 C.ar    1  UNL1        0.0298
     12 C         139.8090  140.3562  167.2661 C.ar    1  UNL1        0.0054
     13 C         140.5426  141.6097  167.6408 C.ar    1  UNL1        0.0356
     14 C         140.4213  144.5089  170.1887 C.3     1  UNL1        0.2525
     15 O         141.1133  143.4457  169.3883 O.3     1  UNL1       -0.4714
     16 C         141.1497  144.4899  163.3587 C.3     1  UNL1        0.0784
     17 C         141.6191  144.4545  161.9345 C.3     1  UNL1        0.0217
     18 C         140.7426  145.3720  161.1346 C.3     1  UNL1        0.0188
     19 C         139.7314  145.9745  162.0645 C.3     1  UNL1        0.0688
     20 N         139.9831  145.4293  163.4391 N.3     1  UNL1       -0.2951
     21 H         139.1579  144.9289  163.7694 H       1  UNL1        0.1235
@<TRIPOS>BOND
     1    14    15    1
     2    15     7    1
     3     7     8   ar
     4     8     9   ar
     5     9    10    1
     6     9    11   ar
     7    11    12   ar
     8    12    13   ar
     9    13     1    1
    10     1     2   ar
    11     2     3   ar
    12     3     4   ar
    13     4     5   ar
    14     5    16    1
    15    16    17    1
    16    17    18    1
    17    18    19    1
    18    19    20    1
    19     5     6   ar
    20    13     7   ar
    21     6     1   ar
    22    20    16    1
    23    20    21    1
@<TRIPOS>MOLECULE
*****
 21 23 0 0 0
SMALL
GASTEIGER

@<TRIPOS>ATOM
      1 C         139.0565  141.4826  164.7814 C.ar    1  UNL1        0.0218
      2 C         138.4234  140.2705  164.1649 C.ar    1  UNL1        0.0989
      3 N         138.3247  138.9954  164.9485 N.ar    1  UNL1       -0.2426
      4 C         138.8592  138.9322  166.3487 C.ar    1  UNL1        0.0959
      5 C         139.4923  140.1443  166.9652 C.ar    1  UNL1        0.0112
      6 C         139.5910  141.4195  166.1815 C.ar    1  UNL1        0.0002
      7 C         140.4979  143.2774  163.5767 C.ar    1  UNL1        0.1409
      8 C         140.5965  144.5526  162.7930 C.ar    1  UNL1        0.0665
      9 C         139.3525  145.3081  162.4303 C.ar    1  UNL1        0.1432
     10 F         139.4512  146.5833  161.6465 F       1  UNL1       -0.2041
     11 C         138.0098  144.7885  162.8512 C.ar    1  UNL1        0.0298
     12 C         137.9112  143.5134  163.6349 C.ar    1  UNL1        0.0054
     13 C         139.1552  142.7578  163.9976 C.ar    1  UNL1        0.0356
     14 C         142.8397  143.2054  164.6994 C.3     1  UNL1        0.2525
     15 O         141.7419  142.5219  163.9394 O.3     1  UNL1       -0.4714
     16 C         140.0267  140.0812  168.3653 C.3     1  UNL1        0.0784
     17 C         139.2438  140.3318  169.6200 C.3     1  UNL1        0.0217
     18 C         140.1710  140.1619  170.7868 C.3     1  UNL1        0.0188
     19 C         141.5271  139.8063  170.2531 C.3     1  UNL1        0.0688
     20 N         141.4378  139.7564  168.7566 N.3     1  UNL1       -0.2951
     21 H         141.6826  138.8230  168.4262 H       1  UNL1        0.1235
@<TRIPOS>BOND
     1    14    15    1
     2    15     7    1
     3     7     8   ar
     4     8     9   ar
     5     9    10    1
     6     9    11   ar
     7    11    12   ar
     8    12    13   ar
     9    13     1    1
    10     1     2   ar
    11     2     3   ar
    12     3     4   ar
    13     4     5   ar
    14     5    16    1
    15    16    17    1
    16    17    18    1
    17    18    19    1
    18    19    20    1
    19     5     6   ar
    20    13     7   ar
    21     6     1   ar
    22    20    16    1
    23    20    21    1
