@<TRIPOS>MOLECULE
*****
 33 35 0 0 0
SMALL
GASTEIGER

@<TRIPOS>ATOM
      1 C         141.3720  138.2847  164.6812 C.3     1  UNL1        0.1688
      2 C         141.6443  138.0556  163.2240 C.3     1  UNL1        0.0609
      3 C         140.5048  137.9732  162.2520 C.3     1  UNL1        0.0758
      4 N         139.0930  138.1200  162.7372 N.3     1  UNL1       -0.2724
      5 C         138.8207  138.3491  164.1943 C.3     1  UNL1        0.0758
      6 C         139.9603  138.4314  165.1664 C.3     1  UNL1        0.0609
      7 O         142.5115  138.3671  165.6532 O.3     1  UNL1       -0.4776
      8 C         142.5901  140.8604  168.7397 C.ar    1  UNL1       -0.0191
      9 C         142.3852  139.6158  167.9279 C.ar    1  UNL1        0.0342
     10 C         142.7164  139.6116  166.4650 C.ar    1  UNL1        0.1555
     11 C         143.2524  140.8521  165.8138 C.ar    1  UNL1        0.1151
     12 N         143.5836  140.8479  164.3508 N.ar    1  UNL1       -0.2408
     13 C         144.1196  142.0883  163.6997 C.ar    1  UNL1        0.0989
     14 C         144.3245  143.3329  164.5115 C.ar    1  UNL1        0.0207
     15 C         143.9933  143.3371  165.9745 C.ar    1  UNL1        0.0032
     16 C         143.4573  142.0967  166.6256 C.ar    1  UNL1        0.0204
     17 C         143.1261  142.1008  168.0886 C.ar    1  UNL1       -0.0026
     18 C         142.2589  140.8645  170.2028 C.3     1  UNL1        0.0265
     19 C         141.1729  141.7587  170.7234 C.3     1  UNL1        0.0047
     20 C         139.0784  140.4757  169.8767 C.3     1  UNL1        0.0000
     21 C         139.8250  141.7629  170.0653 C.3     1  UNL1        0.0003
     22 C         137.9535  138.0376  161.7652 C.3     1  UNL1        0.0722
     23 C         137.3824  139.2910  161.1712 C.3     1  UNL1        0.0192
     24 C         137.9360  140.6280  161.5660 C.3     1  UNL1        0.0284
     25 C         137.3572  141.3627  162.7386 C.3     1  UNL1        0.1689
     26 S         137.7465  142.7882  162.9970 S.O2    1  UNL1        0.0407
     27 O         137.7914  142.5089  164.4701 O.2     1  UNL1       -0.1575
     28 O         137.7016  143.0674  161.5240 O.2     1  UNL1       -0.1575
     29 N         138.1357  144.2135  163.2554 N.3     1  UNL1       -0.1833
     30 H         137.2771  144.7179  163.4759 H       1  UNL1        0.1484
     31 C         139.1191  144.5375  164.3407 C.3     1  UNL1        0.0911
     32 C         140.5866  144.3294  164.1097 C.3     1  UNL1        0.0188
     33 C         141.3787  145.3519  163.3501 C.3     1  UNL1        0.0015
@<TRIPOS>BOND
     1    20    21    1
     2    21    19    1
     3    19    18    1
     4    18     8    1
     5     8     9   ar
     6     9    10   ar
     7    10     7    1
     8     7     1    1
     9     1     2    1
    10     2     3    1
    11     3     4    1
    12     4    22    1
    13    22    23    1
    14    23    24    1
    15    24    25    1
    16    25    26    1
    17    26    27    2
    18    26    28    2
    19    26    29    1
    20    29    31    1
    21    31    32    1
    22    32    33    1
    23     4     5    1
    24     5     6    1
    25    10    11   ar
    26    11    12   ar
    27    12    13   ar
    28    13    14   ar
    29    14    15   ar
    30    15    16   ar
    31    16    17   ar
    32    17     8   ar
    33     6     1    1
    34    16    11   ar
    35    29    30    1
@<TRIPOS>MOLECULE
*****
 33 35 0 0 0
SMALL
GASTEIGER

@<TRIPOS>ATOM
      1 C         138.9206  142.0171  164.9868 C.3     1  UNL1        0.1688
      2 C         138.1110  142.0614  163.7247 C.3     1  UNL1        0.0609
      3 C         138.1311  143.2894  162.8635 C.3     1  UNL1        0.0758
      4 N         138.9607  144.4731  163.2643 N.3     1  UNL1       -0.2724
      5 C         139.7703  144.4288  164.5262 C.3     1  UNL1        0.0758
      6 C         139.7502  143.2008  165.3875 C.3     1  UNL1        0.0609
      7 O         138.9005  140.7892  165.8480 O.3     1  UNL1       -0.4776
      8 C         141.5433  139.8600  168.6591 C.ar    1  UNL1       -0.0191
      9 C         140.2819  140.3353  168.0010 C.ar    1  UNL1        0.0342
     10 C         140.1619  140.3139  166.5060 C.ar    1  UNL1        0.1555
     11 C         141.3033  139.8173  165.6690 C.ar    1  UNL1        0.1151
     12 N         141.1833  139.7959  164.1739 N.ar    1  UNL1       -0.2408
     13 C         142.3247  139.2993  163.3370 C.ar    1  UNL1        0.0989
     14 C         143.5861  138.8240  163.9950 C.ar    1  UNL1        0.0207
     15 C         143.7061  138.8454  165.4900 C.ar    1  UNL1        0.0032
     16 C         142.5647  139.3420  166.3270 C.ar    1  UNL1        0.0204
     17 C         142.6847  139.3634  167.8221 C.ar    1  UNL1       -0.0026
     18 C         141.6632  139.8813  170.1541 C.3     1  UNL1        0.0265
     19 C         141.9286  141.1743  170.8668 C.3     1  UNL1        0.0047
     20 C         143.9296  142.4302  169.7858 C.3     1  UNL1        0.0000
     21 C         142.4670  142.3515  170.1092 C.3     1  UNL1        0.0003
     22 C         138.9808  145.7010  162.4031 C.3     1  UNL1        0.0722
     23 C         140.1215  145.9355  161.4576 C.3     1  UNL1        0.0192
     24 C         140.4881  144.8867  160.4498 C.3     1  UNL1        0.0284
     25 C         141.8161  144.1948  160.5367 C.3     1  UNL1        0.1689
     26 S         142.2138  143.4907  161.8001 S.O2    1  UNL1        0.0407
     27 O         143.2300  144.5591  162.0757 O.2     1  UNL1       -0.1575
     28 O         141.1976  142.4224  161.5246 O.2     1  UNL1       -0.1575
     29 N         142.6115  142.7867  163.0635 N.3     1  UNL1       -0.1833
     30 H         142.1494  141.8774  163.0517 H       1  UNL1        0.1484
     31 C         144.0605  142.5324  163.3561 C.3     1  UNL1        0.0911
     32 C         144.5341  142.4421  164.7766 C.3     1  UNL1        0.0188
     33 C         143.5988  142.7732  165.9015 C.3     1  UNL1        0.0015
@<TRIPOS>BOND
     1    20    21    1
     2    21    19    1
     3    19    18    1
     4    18     8    1
     5     8     9   ar
     6     9    10   ar
     7    10     7    1
     8     7     1    1
     9     1     2    1
    10     2     3    1
    11     3     4    1
    12     4    22    1
    13    22    23    1
    14    23    24    1
    15    24    25    1
    16    25    26    1
    17    26    27    2
    18    26    28    2
    19    26    29    1
    20    29    31    1
    21    31    32    1
    22    32    33    1
    23     4     5    1
    24     5     6    1
    25    10    11   ar
    26    11    12   ar
    27    12    13   ar
    28    13    14   ar
    29    14    15   ar
    30    15    16   ar
    31    16    17   ar
    32    17     8   ar
    33     6     1    1
    34    16    11   ar
    35    29    30    1
@<TRIPOS>MOLECULE
*****
 33 35 0 0 0
SMALL
GASTEIGER

@<TRIPOS>ATOM
      1 C         138.3649  139.6706  163.2023 C.3     1  UNL1        0.1688
      2 C         138.1038  139.0676  161.8538 C.3     1  UNL1        0.0609
      3 C         138.0379  139.9458  160.6396 C.3     1  UNL1        0.0758
      4 N         138.2331  141.4270  160.7738 N.3     1  UNL1       -0.2724
      5 C         138.4941  142.0300  162.1222 C.3     1  UNL1        0.0758
      6 C         138.5601  141.1517  163.3365 C.3     1  UNL1        0.0609
      7 O         138.4308  138.7923  164.4165 O.3     1  UNL1       -0.4776
      8 C         139.6847  139.9309  168.0055 C.ar    1  UNL1       -0.0191
      9 C         138.7711  139.5742  166.8706 C.ar    1  UNL1        0.0342
     10 C         139.3445  139.1490  165.5514 C.ar    1  UNL1        0.1555
     11 C         140.8316  139.0804  165.3671 C.ar    1  UNL1        0.1151
     12 N         141.4049  138.6552  164.0478 N.ar    1  UNL1       -0.2408
     13 C         142.8920  138.5866  163.8636 C.ar    1  UNL1        0.0989
     14 C         143.8056  138.9433  164.9985 C.ar    1  UNL1        0.0207
     15 C         143.2322  139.3685  166.3177 C.ar    1  UNL1        0.0032
     16 C         141.7452  139.4371  166.5020 C.ar    1  UNL1        0.0204
     17 C         141.1717  139.8624  167.8212 C.ar    1  UNL1       -0.0026
     18 C         139.1112  140.3562  169.3248 C.3     1  UNL1        0.0265
     19 C         139.9131  141.2281  170.2450 C.3     1  UNL1        0.0047
     20 C         141.4002  143.3261  169.8752 C.3     1  UNL1        0.0000
     21 C         140.0419  142.6960  169.9644 C.3     1  UNL1        0.0003
     22 C         138.1671  142.3053  159.5596 C.3     1  UNL1        0.0722
     23 C         139.4320  142.7697  158.9003 C.3     1  UNL1        0.0192
     24 C         139.9375  144.1608  159.1436 C.3     1  UNL1        0.0284
     25 C         141.1679  144.3771  159.9738 C.3     1  UNL1        0.1689
     26 S         141.0644  145.0635  161.3035 S.O2    1  UNL1        0.0407
     27 O         139.6374  145.4196  161.0087 O.2     1  UNL1       -0.1575
     28 O         142.4913  144.7075  161.5984 O.2     1  UNL1       -0.1575
     29 N         140.9609  145.7499  162.6332 N.3     1  UNL1       -0.1833
     30 H         139.9884  146.0377  162.7411 H       1  UNL1        0.1484
     31 C         141.3373  145.0172  163.8868 C.3     1  UNL1        0.0911
     32 C         140.3024  144.2304  164.6351 C.3     1  UNL1        0.0188
     33 C         138.9169  144.7807  164.8010 C.3     1  UNL1        0.0015
@<TRIPOS>BOND
     1    20    21    1
     2    21    19    1
     3    19    18    1
     4    18     8    1
     5     8     9   ar
     6     9    10   ar
     7    10     7    1
     8     7     1    1
     9     1     2    1
    10     2     3    1
    11     3     4    1
    12     4    22    1
    13    22    23    1
    14    23    24    1
    15    24    25    1
    16    25    26    1
    17    26    27    2
    18    26    28    2
    19    26    29    1
    20    29    31    1
    21    31    32    1
    22    32    33    1
    23     4     5    1
    24     5     6    1
    25    10    11   ar
    26    11    12   ar
    27    12    13   ar
    28    13    14   ar
    29    14    15   ar
    30    15    16   ar
    31    16    17   ar
    32    17     8   ar
    33     6     1    1
    34    16    11   ar
    35    29    30    1
@<TRIPOS>MOLECULE
*****
 33 35 0 0 0
SMALL
GASTEIGER

@<TRIPOS>ATOM
      1 C         143.8678  140.0533  164.7219 C.3     1  UNL1        0.1688
      2 C         143.9166  141.5490  164.8265 C.3     1  UNL1        0.0609
      3 C         144.2092  142.3766  163.6103 C.3     1  UNL1        0.0758
      4 N         144.4531  141.7088  162.2895 N.3     1  UNL1       -0.2724
      5 C         144.4043  140.2133  162.1849 C.3     1  UNL1        0.0758
      6 C         144.1116  139.3855  163.4011 C.3     1  UNL1        0.0609
      7 O         143.5751  139.2257  165.9382 O.3     1  UNL1       -0.4776
      8 C         141.1330  139.9481  168.9819 C.ar    1  UNL1       -0.0191
      9 C         142.3903  139.7119  168.1986 C.ar    1  UNL1        0.0342
     10 C         142.3178  139.4619  166.7214 C.ar    1  UNL1        0.1555
     11 C         140.9881  139.4482  166.0274 C.ar    1  UNL1        0.1151
     12 N         140.9156  139.1983  164.5501 N.ar    1  UNL1       -0.2408
     13 C         139.5859  139.1845  163.8562 C.ar    1  UNL1        0.0989
     14 C         138.3287  139.4208  164.6394 C.ar    1  UNL1        0.0207
     15 C         138.4011  139.6708  166.1166 C.ar    1  UNL1        0.0032
     16 C         139.7308  139.6845  166.8106 C.ar    1  UNL1        0.0204
     17 C         139.8033  139.9344  168.2879 C.ar    1  UNL1       -0.0026
     18 C         141.2055  140.1981  170.4592 C.3     1  UNL1        0.0265
     19 C         141.2395  141.6040  170.9812 C.3     1  UNL1        0.0047
     20 C         140.4909  143.6243  169.5293 C.3     1  UNL1        0.0000
     21 C         140.1829  142.5841  170.5653 C.3     1  UNL1        0.0003
     22 C         144.7457  142.5365  161.0732 C.3     1  UNL1        0.0722
     23 C         143.6183  143.1178  160.2725 C.3     1  UNL1        0.0192
     24 C         142.2406  143.1917  160.8610 C.3     1  UNL1        0.0284
     25 C         141.4376  144.4523  160.7343 C.3     1  UNL1        0.1689
     26 S         140.7091  145.0004  161.9255 S.O2    1  UNL1        0.0407
     27 O         142.0007  145.0662  162.6853 O.2     1  UNL1       -0.1575
     28 O         139.4174  144.9347  161.1658 O.2     1  UNL1       -0.1575
     29 N         139.9805  145.5486  163.1166 N.3     1  UNL1       -0.1833
     30 H         139.3195  146.2409  162.7645 H       1  UNL1        0.1484
     31 C         139.2065  144.6269  164.0118 C.3     1  UNL1        0.0911
     32 C         139.8002  143.3145  164.4307 C.3     1  UNL1        0.0188
     33 C         140.3909  143.1618  165.8010 C.3     1  UNL1        0.0015
@<TRIPOS>BOND
     1    20    21    1
     2    21    19    1
     3    19    18    1
     4    18     8    1
     5     8     9   ar
     6     9    10   ar
     7    10     7    1
     8     7     1    1
     9     1     2    1
    10     2     3    1
    11     3     4    1
    12     4    22    1
    13    22    23    1
    14    23    24    1
    15    24    25    1
    16    25    26    1
    17    26    27    2
    18    26    28    2
    19    26    29    1
    20    29    31    1
    21    31    32    1
    22    32    33    1
    23     4     5    1
    24     5     6    1
    25    10    11   ar
    26    11    12   ar
    27    12    13   ar
    28    13    14   ar
    29    14    15   ar
    30    15    16   ar
    31    16    17   ar
    32    17     8   ar
    33     6     1    1
    34    16    11   ar
    35    29    30    1
@<TRIPOS>MOLECULE
*****
 33 35 0 0 0
SMALL
GASTEIGER

@<TRIPOS>ATOM
      1 C         139.3697  143.0881  164.9818 C.3     1  UNL1        0.1688
      2 C         138.2293  143.3323  164.0385 C.3     1  UNL1        0.0609
      3 C         138.3725  144.3352  162.9323 C.3     1  UNL1        0.0758
      4 N         139.6561  145.0940  162.7695 N.3     1  UNL1       -0.2724
      5 C         140.7965  144.8499  163.7128 C.3     1  UNL1        0.0758
      6 C         140.6533  143.8469  164.8190 C.3     1  UNL1        0.0609
      7 O         139.2265  142.0852  166.0880 O.3     1  UNL1       -0.4776
      8 C         142.0156  139.2623  166.1347 C.ar    1  UNL1       -0.0191
      9 C         140.8333  140.0797  165.7057 C.ar    1  UNL1        0.0342
     10 C         140.4088  141.2678  166.5170 C.ar    1  UNL1        0.1555
     11 C         141.1665  141.6385  167.7574 C.ar    1  UNL1        0.1151
     12 N         140.7420  142.8265  168.5687 N.ar    1  UNL1       -0.2408
     13 C         141.4997  143.1972  169.8090 C.ar    1  UNL1        0.0989
     14 C         142.6820  142.3797  170.2380 C.ar    1  UNL1        0.0207
     15 C         143.1065  141.1917  169.4267 C.ar    1  UNL1        0.0032
     16 C         142.3488  140.8211  168.1864 C.ar    1  UNL1        0.0204
     17 C         142.7733  139.6330  167.3750 C.ar    1  UNL1       -0.0026
     18 C         142.4401  138.0742  165.3233 C.3     1  UNL1        0.0265
     19 C         141.4132  137.2545  164.5998 C.3     1  UNL1        0.0047
     20 C         142.2730  137.8863  162.2309 C.3     1  UNL1        0.0000
     21 C         141.1474  137.5000  163.1441 C.3     1  UNL1        0.0003
     22 C         139.7994  146.0969  161.6633 C.3     1  UNL1        0.0722
     23 C         140.1826  145.6442  160.2855 C.3     1  UNL1        0.0192
     24 C         141.4496  144.8692  160.0760 C.3     1  UNL1        0.0284
     25 C         141.4541  143.3790  160.2467 C.3     1  UNL1        0.1689
     26 S         142.5210  142.7216  161.0711 S.O2    1  UNL1        0.0407
     27 O         143.2033  144.0462  161.2444 O.2     1  UNL1       -0.1575
     28 O         141.8388  141.3971  160.8979 O.2     1  UNL1       -0.1575
     29 N         143.5879  142.0643  161.8956 N.3     1  UNL1       -0.1833
     30 H         144.4716  142.2175  161.4098 H       1  UNL1        0.1484
     31 C         143.7989  142.4826  163.3205 C.3     1  UNL1        0.0911
     32 C         144.1752  141.4623  164.3538 C.3     1  UNL1        0.0188
     33 C         145.1785  140.3968  164.0250 C.3     1  UNL1        0.0015
@<TRIPOS>BOND
     1    20    21    1
     2    21    19    1
     3    19    18    1
     4    18     8    1
     5     8     9   ar
     6     9    10   ar
     7    10     7    1
     8     7     1    1
     9     1     2    1
    10     2     3    1
    11     3     4    1
    12     4    22    1
    13    22    23    1
    14    23    24    1
    15    24    25    1
    16    25    26    1
    17    26    27    2
    18    26    28    2
    19    26    29    1
    20    29    31    1
    21    31    32    1
    22    32    33    1
    23     4     5    1
    24     5     6    1
    25    10    11   ar
    26    11    12   ar
    27    12    13   ar
    28    13    14   ar
    29    14    15   ar
    30    15    16   ar
    31    16    17   ar
    32    17     8   ar
    33     6     1    1
    34    16    11   ar
    35    29    30    1
@<TRIPOS>MOLECULE
*****
 33 35 0 0 0
SMALL
GASTEIGER

@<TRIPOS>ATOM
      1 C         143.2271  139.2603  164.2287 C.3     1  UNL1        0.1688
      2 C         144.0502  139.8302  163.1116 C.3     1  UNL1        0.0609
      3 C         143.8429  139.3488  161.7062 C.3     1  UNL1        0.0758
      4 N         142.8125  138.2975  161.4178 N.3     1  UNL1       -0.2724
      5 C         141.9894  137.7277  162.5348 C.3     1  UNL1        0.0758
      6 C         142.1967  138.2091  163.9403 C.3     1  UNL1        0.0609
      7 O         143.4345  139.7417  165.6341 O.3     1  UNL1       -0.4776
      8 C         140.9114  142.7867  165.9693 C.ar    1  UNL1       -0.0191
      9 C         141.8602  141.7915  165.3697 C.ar    1  UNL1        0.0342
     10 C         142.4857  140.7369  166.2337 C.ar    1  UNL1        0.1555
     11 C         142.1625  140.6775  167.6973 C.ar    1  UNL1        0.1151
     12 N         142.7881  139.6229  168.5613 N.ar    1  UNL1       -0.2408
     13 C         142.4648  139.5635  170.0248 C.ar    1  UNL1        0.0989
     14 C         141.5161  140.5586  170.6243 C.ar    1  UNL1        0.0207
     15 C         140.8906  141.6132  169.7604 C.ar    1  UNL1        0.0032
     16 C         141.2138  141.6726  168.2969 C.ar    1  UNL1        0.0204
     17 C         140.5882  142.7273  167.4328 C.ar    1  UNL1       -0.0026
     18 C         140.2859  143.8413  165.1052 C.3     1  UNL1        0.0265
     19 C         138.9323  144.3879  165.4503 C.3     1  UNL1        0.0047
     20 C         137.8637  143.9180  163.1292 C.3     1  UNL1        0.0000
     21 C         137.7393  144.0153  164.6209 C.3     1  UNL1        0.0003
     22 C         142.6052  137.8161  160.0124 C.3     1  UNL1        0.0722
     23 C         141.5389  138.4343  159.1574 C.3     1  UNL1        0.0192
     24 C         140.5102  139.3343  159.7753 C.3     1  UNL1        0.0284
     25 C         139.2974  138.7461  160.4334 C.3     1  UNL1        0.1689
     26 S         138.6276  139.4753  161.5603 S.O2    1  UNL1        0.0407
     27 O         139.7510  140.4689  161.5851 O.2     1  UNL1       -0.1575
     28 O         137.5043  138.4816  161.5356 O.2     1  UNL1       -0.1575
     29 N         137.9579  140.2043  162.6872 N.3     1  UNL1       -0.1833
     30 H         137.0949  139.7007  162.8921 H       1  UNL1        0.1484
     31 C         138.6733  140.3866  163.9929 C.3     1  UNL1        0.0911
     32 C         138.7615  139.2476  164.9651 C.3     1  UNL1        0.0188
     33 C         138.7820  139.5205  166.4400 C.3     1  UNL1        0.0015
@<TRIPOS>BOND
     1    20    21    1
     2    21    19    1
     3    19    18    1
     4    18     8    1
     5     8     9   ar
     6     9    10   ar
     7    10     7    1
     8     7     1    1
     9     1     2    1
    10     2     3    1
    11     3     4    1
    12     4    22    1
    13    22    23    1
    14    23    24    1
    15    24    25    1
    16    25    26    1
    17    26    27    2
    18    26    28    2
    19    26    29    1
    20    29    31    1
    21    31    32    1
    22    32    33    1
    23     4     5    1
    24     5     6    1
    25    10    11   ar
    26    11    12   ar
    27    12    13   ar
    28    13    14   ar
    29    14    15   ar
    30    15    16   ar
    31    16    17   ar
    32    17     8   ar
    33     6     1    1
    34    16    11   ar
    35    29    30    1
@<TRIPOS>MOLECULE
*****
 33 35 0 0 0
SMALL
GASTEIGER

@<TRIPOS>ATOM
      1 C         143.5361  141.0654  165.0910 C.3     1  UNL1        0.1688
      2 C         143.9548  140.2190  163.9255 C.3     1  UNL1        0.0609
      3 C         144.1928  140.8515  162.5864 C.3     1  UNL1        0.0758
      4 N         144.0122  142.3304  162.4127 N.3     1  UNL1       -0.2724
      5 C         143.5935  143.1768  163.5781 C.3     1  UNL1        0.0758
      6 C         143.3554  142.5443  164.9173 C.3     1  UNL1        0.0609
      7 O         143.2980  140.4329  166.4301 O.3     1  UNL1       -0.4776
      8 C         139.4523  139.4599  166.5454 C.ar    1  UNL1       -0.0191
      9 C         140.8530  139.6450  166.0417 C.ar    1  UNL1        0.0342
     10 C         141.8973  140.2479  166.9338 C.ar    1  UNL1        0.1555
     11 C         141.5409  140.6658  168.3297 C.ar    1  UNL1        0.1151
     12 N         142.5852  141.2687  169.2218 N.ar    1  UNL1       -0.2408
     13 C         142.2288  141.6866  170.6176 C.ar    1  UNL1        0.0989
     14 C         140.8281  141.5015  171.1213 C.ar    1  UNL1        0.0207
     15 C         139.7838  140.8986  170.2292 C.ar    1  UNL1        0.0032
     16 C         140.1402  140.4807  168.8334 C.ar    1  UNL1        0.0204
     17 C         139.0959  139.8778  167.9412 C.ar    1  UNL1       -0.0026
     18 C         138.4079  138.8570  165.6533 C.3     1  UNL1        0.0265
     19 C         138.7000  137.5886  164.9076 C.3     1  UNL1        0.0047
     20 C         140.3446  137.5649  162.8965 C.3     1  UNL1        0.0000
     21 C         138.9433  137.6275  163.4280 C.3     1  UNL1        0.0003
     22 C         144.2502  142.9629  161.0736 C.3     1  UNL1        0.0722
     23 C         143.1115  143.1352  160.1124 C.3     1  UNL1        0.0192
     24 C         141.9333  143.9833  160.4898 C.3     1  UNL1        0.0284
     25 C         140.5910  143.3492  160.7047 C.3     1  UNL1        0.1689
     26 S         139.5623  144.0394  161.5507 S.O2    1  UNL1        0.0407
     27 O         140.6479  144.8078  162.2441 O.2     1  UNL1       -0.1575
     28 O         138.4766  143.2709  160.8573 O.2     1  UNL1       -0.1575
     29 N         138.5336  144.7295  162.3966 N.3     1  UNL1       -0.1833
     30 H         137.7414  144.9347  161.7878 H       1  UNL1        0.1484
     31 C         137.9802  144.0456  163.6115 C.3     1  UNL1        0.0911
     32 C         138.7264  142.9028  164.2341 C.3     1  UNL1        0.0188
     33 C         139.5204  143.1199  165.4880 C.3     1  UNL1        0.0015
@<TRIPOS>BOND
     1    20    21    1
     2    21    19    1
     3    19    18    1
     4    18     8    1
     5     8     9   ar
     6     9    10   ar
     7    10     7    1
     8     7     1    1
     9     1     2    1
    10     2     3    1
    11     3     4    1
    12     4    22    1
    13    22    23    1
    14    23    24    1
    15    24    25    1
    16    25    26    1
    17    26    27    2
    18    26    28    2
    19    26    29    1
    20    29    31    1
    21    31    32    1
    22    32    33    1
    23     4     5    1
    24     5     6    1
    25    10    11   ar
    26    11    12   ar
    27    12    13   ar
    28    13    14   ar
    29    14    15   ar
    30    15    16   ar
    31    16    17   ar
    32    17     8   ar
    33     6     1    1
    34    16    11   ar
    35    29    30    1
@<TRIPOS>MOLECULE
*****
 33 35 0 0 0
SMALL
GASTEIGER

@<TRIPOS>ATOM
      1 C         138.8709  142.0458  164.4841 C.3     1  UNL1        0.1688
      2 C         138.6782  142.8304  163.2202 C.3     1  UNL1        0.0609
      3 C         138.1772  142.1473  161.9824 C.3     1  UNL1        0.0758
      4 N         137.8689  140.6795  162.0084 N.3     1  UNL1       -0.2724
      5 C         138.0615  139.8949  163.2722 C.3     1  UNL1        0.0758
      6 C         138.5625  140.5781  164.5101 C.3     1  UNL1        0.0609
      7 O         139.3718  142.7290  165.7219 O.3     1  UNL1       -0.4776
      8 C         143.3187  142.9306  165.3591 C.ar    1  UNL1       -0.0191
      9 C         141.8595  142.9775  165.0149 C.ar    1  UNL1        0.0342
     10 C         140.8311  142.6820  166.0661 C.ar    1  UNL1        0.1555
     11 C         141.2619  142.3395  167.4616 C.ar    1  UNL1        0.1151
     12 N         140.2335  142.0439  168.5127 N.ar    1  UNL1       -0.2408
     13 C         140.6643  141.7014  169.9081 C.ar    1  UNL1        0.0989
     14 C         142.1235  141.6545  170.2522 C.ar    1  UNL1        0.0207
     15 C         143.1519  141.9500  169.2011 C.ar    1  UNL1        0.0032
     16 C         142.7211  142.2925  167.8057 C.ar    1  UNL1        0.0204
     17 C         143.7495  142.5881  166.7545 C.ar    1  UNL1       -0.0026
     18 C         144.3471  143.2261  164.3079 C.3     1  UNL1        0.0265
     19 C         145.2771  142.1447  163.8435 C.3     1  UNL1        0.0047
     20 C         145.2978  139.5986  164.3598 C.3     1  UNL1        0.0000
     21 C         144.7523  140.7631  163.5875 C.3     1  UNL1        0.0003
     22 C         137.3679  139.9964  160.7705 C.3     1  UNL1        0.0722
     23 C         138.2311  139.9368  159.5452 C.3     1  UNL1        0.0192
     24 C         139.6380  139.4261  159.6430 C.3     1  UNL1        0.0284
     25 C         139.9525  138.2602  160.5326 C.3     1  UNL1        0.1689
     26 S         141.0341  138.3751  161.5656 S.O2    1  UNL1        0.0407
     27 O         140.3934  137.2752  162.3590 O.2     1  UNL1       -0.1575
     28 O         141.6748  139.4751  160.7722 O.2     1  UNL1       -0.1575
     29 N         142.1157  138.4902  162.5985 N.3     1  UNL1       -0.1833
     30 H         142.4025  139.4688  162.6168 H       1  UNL1        0.1484
     31 C         141.8420  138.0924  164.0186 C.3     1  UNL1        0.0911
     32 C         141.7309  139.1430  165.0836 C.3     1  UNL1        0.0188
     33 C         142.4189  138.9496  166.4024 C.3     1  UNL1        0.0015
@<TRIPOS>BOND
     1    20    21    1
     2    21    19    1
     3    19    18    1
     4    18     8    1
     5     8     9   ar
     6     9    10   ar
     7    10     7    1
     8     7     1    1
     9     1     2    1
    10     2     3    1
    11     3     4    1
    12     4    22    1
    13    22    23    1
    14    23    24    1
    15    24    25    1
    16    25    26    1
    17    26    27    2
    18    26    28    2
    19    26    29    1
    20    29    31    1
    21    31    32    1
    22    32    33    1
    23     4     5    1
    24     5     6    1
    25    10    11   ar
    26    11    12   ar
    27    12    13   ar
    28    13    14   ar
    29    14    15   ar
    30    15    16   ar
    31    16    17   ar
    32    17     8   ar
    33     6     1    1
    34    16    11   ar
    35    29    30    1
@<TRIPOS>MOLECULE
*****
 33 35 0 0 0
SMALL
GASTEIGER

@<TRIPOS>ATOM
      1 C         138.7594  140.2951  164.2933 C.3     1  UNL1        0.1688
      2 C         139.5480  139.8676  163.0911 C.3     1  UNL1        0.0609
      3 C         139.4431  140.6423  161.8110 C.3     1  UNL1        0.0758
      4 N         138.5496  141.8446  161.7330 N.3     1  UNL1       -0.2724
      5 C         137.7609  142.2722  162.9352 C.3     1  UNL1        0.0758
      6 C         137.8658  141.4974  164.2154 C.3     1  UNL1        0.0609
      7 O         138.8643  139.5204  165.5734 O.3     1  UNL1       -0.4776
      8 C         142.7419  139.1290  166.3224 C.ar    1  UNL1       -0.0191
      9 C         141.4396  139.1774  165.5796 C.ar    1  UNL1        0.0342
     10 C         140.1666  139.4719  166.3162 C.ar    1  UNL1        0.1555
     11 C         140.1958  139.7180  167.7956 C.ar    1  UNL1        0.1151
     12 N         138.9228  140.0125  168.5322 N.ar    1  UNL1       -0.2408
     13 C         138.9520  140.2586  170.0116 C.ar    1  UNL1        0.0989
     14 C         140.2543  140.2102  170.7544 C.ar    1  UNL1        0.0207
     15 C         141.5273  139.9156  170.0178 C.ar    1  UNL1        0.0032
     16 C         141.4981  139.6696  168.5384 C.ar    1  UNL1        0.0204
     17 C         142.7712  139.3750  167.8017 C.ar    1  UNL1       -0.0026
     18 C         144.0150  138.8344  165.5857 C.3     1  UNL1        0.0265
     19 C         144.1987  139.3248  164.1801 C.3     1  UNL1        0.0047
     20 C         144.8908  141.8267  164.2862 C.3     1  UNL1        0.0000
     21 C         145.1904  140.4118  163.8886 C.3     1  UNL1        0.0003
     22 C         138.4446  142.6194  160.4529 C.3     1  UNL1        0.0722
     23 C         139.6841  142.9662  159.6824 C.3     1  UNL1        0.0192
     24 C         139.8734  144.3568  159.1529 C.3     1  UNL1        0.0284
     25 C         140.8110  145.3015  159.8447 C.3     1  UNL1        0.1689
     26 S         140.7750  145.4344  161.3384 S.O2    1  UNL1        0.0407
     27 O         139.4201  146.0717  161.2491 O.2     1  UNL1       -0.1575
     28 O         142.1299  144.7970  161.4277 O.2     1  UNL1       -0.1575
     29 N         140.7391  145.5672  162.8320 N.3     1  UNL1       -0.1833
     30 H         139.7700  145.4255  163.1170 H       1  UNL1        0.1484
     31 C         141.5781  144.6633  163.6858 C.3     1  UNL1        0.0911
     32 C         140.9768  143.4266  164.2852 C.3     1  UNL1        0.0188
     33 C         141.5352  142.8622  165.5578 C.3     1  UNL1        0.0015
@<TRIPOS>BOND
     1    20    21    1
     2    21    19    1
     3    19    18    1
     4    18     8    1
     5     8     9   ar
     6     9    10   ar
     7    10     7    1
     8     7     1    1
     9     1     2    1
    10     2     3    1
    11     3     4    1
    12     4    22    1
    13    22    23    1
    14    23    24    1
    15    24    25    1
    16    25    26    1
    17    26    27    2
    18    26    28    2
    19    26    29    1
    20    29    31    1
    21    31    32    1
    22    32    33    1
    23     4     5    1
    24     5     6    1
    25    10    11   ar
    26    11    12   ar
    27    12    13   ar
    28    13    14   ar
    29    14    15   ar
    30    15    16   ar
    31    16    17   ar
    32    17     8   ar
    33     6     1    1
    34    16    11   ar
    35    29    30    1
