@<TRIPOS>MOLECULE
*****
 31 35 0 0 0
SMALL
GASTEIGER

@<TRIPOS>ATOM
      1 C         140.3827  142.5115  164.4407 C.ar    1  UNL1        0.0670
      2 C         140.7928  143.0321  165.7863 C.ar    1  UNL1        0.0191
      3 C         140.4147  142.2807  167.0282 C.ar    1  UNL1        0.0203
      4 C         139.6264  141.0088  166.9245 C.ar    1  UNL1        0.0795
      5 C         139.2162  140.4882  165.5789 C.ar    1  UNL1        0.0396
      6 C         138.4490  139.2164  165.7881 C.ar    1  UNL1        0.1216
      7 N         138.3849  138.9509  167.2631 N.ar    1  UNL1       -0.1677
      8 N         139.1126  140.0587  167.9655 N.ar    1  UNL1       -0.2494
      9 C         139.5943  141.2396  164.3370 C.ar    1  UNL1        0.0207
     10 O         138.6947  144.8081  163.5045 O.2     1  UNL1       -0.2665
     11 C         139.9168  144.4112  162.7306 C.ar    1  UNL1        0.2679
     12 C         140.2949  145.1625  161.4886 C.ar    1  UNL1        0.0980
     13 C         141.5170  144.7656  160.7147 C.ar    1  UNL1        0.1453
     14 C         142.3610  143.6173  161.1827 C.ar    1  UNL1        0.0561
     15 C         141.9829  142.8659  162.4248 C.ar    1  UNL1        0.0860
     16 N         140.7608  143.2629  163.1986 N.ar    1  UNL1       -0.2729
     17 O         141.8951  145.5169  159.4727 O.3     1  UNL1       -0.4704
     18 C         141.8700  144.8262  158.1415 C.3     1  UNL1        0.2320
     19 C         141.2008  145.4809  156.9694 C.ar    1  UNL1        0.0212
     20 C         141.7270  145.2552  155.5830 C.ar    1  UNL1       -0.0007
     21 C         141.0578  145.9098  154.4110 C.ar    1  UNL1       -0.0002
     22 C         139.8624  146.7902  154.6254 C.ar    1  UNL1       -0.0000
     23 C         139.3361  147.0158  156.0118 C.ar    1  UNL1       -0.0002
     24 C         140.0053  146.3612  157.1838 C.ar    1  UNL1       -0.0007
     25 C         139.2946  140.1928  169.4483 C.3     1  UNL1        0.1447
     26 C         140.6382  139.9387  170.0650 C.3     1  UNL1        0.0988
     27 N         141.6939  141.0036  170.0282 N.3     1  UNL1       -0.2710
     28 C         141.6502  142.3140  170.7567 C.3     1  UNL1        0.0722
     29 C         142.9080  143.0653  170.4351 C.3     1  UNL1        0.0188
     30 C         143.7291  142.2192  169.5078 C.3     1  UNL1        0.0188
     31 C         142.9787  140.9450  169.2563 C.3     1  UNL1        0.0722
@<TRIPOS>BOND
     1    10    11    2
     2    11    12   ar
     3    12    13   ar
     4    13    17    1
     5    17    18    1
     6    18    19    1
     7    19    20   ar
     8    20    21   ar
     9    21    22   ar
    10    22    23   ar
    11    23    24   ar
    12    13    14   ar
    13    14    15   ar
    14    15    16   ar
    15    16     1    1
    16     1     2   ar
    17     2     3   ar
    18     3     4   ar
    19     4     5   ar
    20     5     6   ar
    21     6     7   ar
    22     7     8   ar
    23     8    25    1
    24    25    26    1
    25    26    27    1
    26    27    28    1
    27    28    29    1
    28    29    30    1
    29    30    31    1
    30     5     9   ar
    31    16    11   ar
    32     9     1   ar
    33    24    19   ar
    34     8     4   ar
    35    31    27    1
@<TRIPOS>MOLECULE
*****
 31 35 0 0 0
SMALL
GASTEIGER

@<TRIPOS>ATOM
      1 C         140.0841  144.0353  160.9524 C.ar    1  UNL1        0.0670
      2 C         140.3932  145.4369  160.5166 C.ar    1  UNL1        0.0191
      3 C         140.3170  145.8047  159.0644 C.ar    1  UNL1        0.0203
      4 C         139.9317  144.7709  158.0481 C.ar    1  UNL1        0.0795
      5 C         139.6226  143.3694  158.4839 C.ar    1  UNL1        0.0396
      6 C         139.2738  142.5706  157.2631 C.ar    1  UNL1        0.1216
      7 N         139.3672  143.4786  156.0728 N.ar    1  UNL1       -0.1677
      8 N         139.7738  144.8385  156.5579 N.ar    1  UNL1       -0.2494
      9 C         139.6988  143.0015  159.9361 C.ar    1  UNL1        0.0207
     10 O         137.7135  144.4752  162.7376 O.2     1  UNL1       -0.2665
     11 C         138.9750  143.8874  163.2972 C.ar    1  UNL1        0.2679
     12 C         139.0512  143.5195  164.7494 C.ar    1  UNL1        0.0980
     13 C         140.3127  142.9316  165.3091 C.ar    1  UNL1        0.1453
     14 C         141.4980  142.7117  164.4165 C.ar    1  UNL1        0.0561
     15 C         141.4218  143.0796  162.9642 C.ar    1  UNL1        0.0860
     16 N         140.1603  143.6674  162.4047 N.ar    1  UNL1       -0.2729
     17 O         140.3888  142.5638  166.7612 O.3     1  UNL1       -0.4704
     18 C         140.8003  141.1786  167.1634 C.3     1  UNL1        0.2320
     19 C         140.0969  139.9884  166.5812 C.ar    1  UNL1        0.0212
     20 C         140.7730  139.1569  165.5318 C.ar    1  UNL1       -0.0007
     21 C         140.0696  137.9668  164.9497 C.ar    1  UNL1       -0.0002
     22 C         138.6901  137.6082  165.4171 C.ar    1  UNL1       -0.0000
     23 C         138.0141  138.4397  166.4666 C.ar    1  UNL1       -0.0002
     24 C         138.7175  139.6298  167.0487 C.ar    1  UNL1       -0.0007
     25 C         139.9855  146.0527  155.7030 C.3     1  UNL1        0.1447
     26 C         138.8284  146.9484  155.3728 C.3     1  UNL1        0.0988
     27 N         139.0589  148.4087  155.1191 N.3     1  UNL1       -0.2710
     28 C         138.4958  149.5429  155.9230 C.3     1  UNL1        0.0722
     29 C         138.9819  150.8263  155.3175 C.3     1  UNL1        0.0188
     30 C         139.8455  150.4853  154.1395 C.3     1  UNL1        0.0188
     31 C         139.8931  148.9910  154.0168 C.3     1  UNL1        0.0722
@<TRIPOS>BOND
     1    10    11    2
     2    11    12   ar
     3    12    13   ar
     4    13    17    1
     5    17    18    1
     6    18    19    1
     7    19    20   ar
     8    20    21   ar
     9    21    22   ar
    10    22    23   ar
    11    23    24   ar
    12    13    14   ar
    13    14    15   ar
    14    15    16   ar
    15    16     1    1
    16     1     2   ar
    17     2     3   ar
    18     3     4   ar
    19     4     5   ar
    20     5     6   ar
    21     6     7   ar
    22     7     8   ar
    23     8    25    1
    24    25    26    1
    25    26    27    1
    26    27    28    1
    27    28    29    1
    28    29    30    1
    29    30    31    1
    30     5     9   ar
    31    16    11   ar
    32     9     1   ar
    33    24    19   ar
    34     8     4   ar
    35    31    27    1
@<TRIPOS>MOLECULE
*****
 31 35 0 0 0
SMALL
GASTEIGER

@<TRIPOS>ATOM
      1 C         140.4970  138.6028  160.5945 C.ar    1  UNL1        0.0670
      2 C         141.9882  138.6709  160.4478 C.ar    1  UNL1        0.0191
      3 C         142.6182  138.4885  159.0988 C.ar    1  UNL1        0.0203
      4 C         141.7569  138.2380  157.8966 C.ar    1  UNL1        0.0795
      5 C         140.2657  138.1700  158.0433 C.ar    1  UNL1        0.0396
      6 C         139.6779  137.9113  156.6877 C.ar    1  UNL1        0.1216
      7 N         140.8059  137.8194  155.7032 N.ar    1  UNL1       -0.1677
      8 N         142.0908  138.0214  156.4503 N.ar    1  UNL1       -0.2494
      9 C         139.6357  138.3524  159.3923 C.ar    1  UNL1        0.0207
     10 O         139.4717  141.2989  161.4190 O.2     1  UNL1       -0.2665
     11 C         139.3543  140.1333  162.3558 C.ar    1  UNL1        0.2679
     12 C         138.7243  140.3157  163.7048 C.ar    1  UNL1        0.0980
     13 C         138.6069  139.1501  164.6416 C.ar    1  UNL1        0.1453
     14 C         139.1195  137.8020  164.2294 C.ar    1  UNL1        0.0561
     15 C         139.7495  137.6196  162.8803 C.ar    1  UNL1        0.0860
     16 N         139.8669  138.7852  161.9436 N.ar    1  UNL1       -0.2729
     17 O         137.9769  139.3325  165.9906 O.3     1  UNL1       -0.4704
     18 C         138.7939  139.1348  167.2328 C.3     1  UNL1        0.2320
     19 C         139.3684  140.3208  167.9494 C.ar    1  UNL1        0.0212
     20 C         139.1986  140.4549  169.4336 C.ar    1  UNL1       -0.0007
     21 C         139.7731  141.6409  170.1501 C.ar    1  UNL1       -0.0002
     22 C         140.5174  142.6928  169.3823 C.ar    1  UNL1       -0.0000
     23 C         140.6873  142.5587  167.8980 C.ar    1  UNL1       -0.0002
     24 C         140.1128  141.3727  167.1815 C.ar    1  UNL1       -0.0007
     25 C         143.4678  138.0089  155.8556 C.3     1  UNL1        0.1447
     26 C         144.1524  136.7037  155.5765 C.3     1  UNL1        0.0988
     27 N         143.3456  135.4456  155.4499 N.3     1  UNL1       -0.2710
     28 C         143.0850  134.4516  156.5426 C.3     1  UNL1        0.0722
     29 C         142.2360  133.3522  155.9763 C.3     1  UNL1        0.0188
     30 C         141.9720  133.6668  154.5337 C.3     1  UNL1        0.0188
     31 C         142.6577  134.9606  154.2083 C.3     1  UNL1        0.0722
@<TRIPOS>BOND
     1    10    11    2
     2    11    12   ar
     3    12    13   ar
     4    13    17    1
     5    17    18    1
     6    18    19    1
     7    19    20   ar
     8    20    21   ar
     9    21    22   ar
    10    22    23   ar
    11    23    24   ar
    12    13    14   ar
    13    14    15   ar
    14    15    16   ar
    15    16     1    1
    16     1     2   ar
    17     2     3   ar
    18     3     4   ar
    19     4     5   ar
    20     5     6   ar
    21     6     7   ar
    22     7     8   ar
    23     8    25    1
    24    25    26    1
    25    26    27    1
    26    27    28    1
    27    28    29    1
    28    29    30    1
    29    30    31    1
    30     5     9   ar
    31    16    11   ar
    32     9     1   ar
    33    24    19   ar
    34     8     4   ar
    35    31    27    1
@<TRIPOS>MOLECULE
*****
 31 35 0 0 0
SMALL
GASTEIGER

@<TRIPOS>ATOM
      1 C         140.0445  139.3643  163.7597 C.ar    1  UNL1        0.0670
      2 C         140.8264  140.3217  164.6094 C.ar    1  UNL1        0.0191
      3 C         140.4907  140.4812  166.0626 C.ar    1  UNL1        0.0203
      4 C         139.3731  139.6832  166.6661 C.ar    1  UNL1        0.0795
      5 C         138.5912  138.7258  165.8165 C.ar    1  UNL1        0.0396
      6 C         137.5516  138.0794  166.6833 C.ar    1  UNL1        0.1216
      7 N         137.6909  138.6373  168.0687 N.ar    1  UNL1       -0.1677
      8 N         138.8167  139.6286  168.0581 N.ar    1  UNL1       -0.2494
      9 C         138.9269  138.5663  164.3633 C.ar    1  UNL1        0.0207
     10 O         142.3996  137.6972  162.9385 O.2     1  UNL1       -0.2665
     11 C         141.5578  138.3712  161.8959 C.ar    1  UNL1        0.2679
     12 C         141.8935  138.2117  160.4427 C.ar    1  UNL1        0.0980
     13 C         141.0516  138.8857  159.4000 C.ar    1  UNL1        0.1453
     14 C         139.8741  139.7192  159.8106 C.ar    1  UNL1        0.0561
     15 C         139.5384  139.8788  161.2639 C.ar    1  UNL1        0.0860
     16 N         140.3802  139.2048  162.3065 N.ar    1  UNL1       -0.2729
     17 O         141.3874  138.7262  157.9468 O.3     1  UNL1       -0.4704
     18 C         142.5310  137.8480  157.5333 C.3     1  UNL1        0.2320
     19 C         142.2677  136.5818  156.7733 C.ar    1  UNL1        0.0212
     20 C         143.1026  135.3633  157.0340 C.ar    1  UNL1       -0.0007
     21 C         142.8393  134.0972  156.2740 C.ar    1  UNL1       -0.0002
     22 C         141.7411  134.0496  155.2534 C.ar    1  UNL1       -0.0000
     23 C         140.9062  135.2682  154.9927 C.ar    1  UNL1       -0.0002
     24 C         141.1695  136.5343  155.7527 C.ar    1  UNL1       -0.0007
     25 C         139.3010  140.4253  169.2331 C.3     1  UNL1        0.1447
     26 C         140.6129  140.0888  169.8779 C.3     1  UNL1        0.0988
     27 N         141.6838  141.1331  169.9889 N.3     1  UNL1       -0.2710
     28 C         143.1094  140.9846  169.5465 C.3     1  UNL1        0.0722
     29 C         143.8238  142.2691  169.8460 C.3     1  UNL1        0.0188
     30 C         142.8398  143.2115  170.4733 C.3     1  UNL1        0.0188
     31 C         141.5172  142.5094  170.5617 C.3     1  UNL1        0.0722
@<TRIPOS>BOND
     1    10    11    2
     2    11    12   ar
     3    12    13   ar
     4    13    17    1
     5    17    18    1
     6    18    19    1
     7    19    20   ar
     8    20    21   ar
     9    21    22   ar
    10    22    23   ar
    11    23    24   ar
    12    13    14   ar
    13    14    15   ar
    14    15    16   ar
    15    16     1    1
    16     1     2   ar
    17     2     3   ar
    18     3     4   ar
    19     4     5   ar
    20     5     6   ar
    21     6     7   ar
    22     7     8   ar
    23     8    25    1
    24    25    26    1
    25    26    27    1
    26    27    28    1
    27    28    29    1
    28    29    30    1
    29    30    31    1
    30     5     9   ar
    31    16    11   ar
    32     9     1   ar
    33    24    19   ar
    34     8     4   ar
    35    31    27    1
@<TRIPOS>MOLECULE
*****
 31 35 0 0 0
SMALL
GASTEIGER

@<TRIPOS>ATOM
      1 C         140.2877  138.9589  160.8670 C.ar    1  UNL1        0.0670
      2 C         139.4702  138.4274  159.7272 C.ar    1  UNL1        0.0191
      3 C         140.0655  138.3422  158.3530 C.ar    1  UNL1        0.0203
      4 C         141.4783  138.7883  158.1187 C.ar    1  UNL1        0.0795
      5 C         142.2958  139.3197  159.2586 C.ar    1  UNL1        0.0396
      6 C         143.6510  139.6821  158.7276 C.ar    1  UNL1        0.1216
      7 N         143.6712  139.3746  157.2595 N.ar    1  UNL1       -0.1677
      8 N         142.3283  138.8222  156.8832 N.ar    1  UNL1       -0.2494
      9 C         141.7005  139.4050  160.6327 C.ar    1  UNL1        0.0207
     10 O         140.9649  136.8852  162.9264 O.2     1  UNL1       -0.2665
     11 C         140.0309  138.0073  163.2709 C.ar    1  UNL1        0.2679
     12 C         139.4357  138.0926  164.6451 C.ar    1  UNL1        0.0980
     13 C         138.5018  139.2148  164.9896 C.ar    1  UNL1        0.1453
     14 C         138.1632  140.2516  163.9599 C.ar    1  UNL1        0.0561
     15 C         138.7585  140.1663  162.5857 C.ar    1  UNL1        0.0860
     16 N         139.6923  139.0442  162.2412 N.ar    1  UNL1       -0.2729
     17 O         137.9065  139.3001  166.3637 O.3     1  UNL1       -0.4704
     18 C         138.7903  139.1991  167.5715 C.3     1  UNL1        0.2320
     19 C         139.3877  140.4383  168.1695 C.ar    1  UNL1        0.0212
     20 C         140.0992  141.4261  167.2932 C.ar    1  UNL1       -0.0007
     21 C         140.6965  142.6652  167.8912 C.ar    1  UNL1       -0.0002
     22 C         140.5823  142.9166  169.3656 C.ar    1  UNL1       -0.0000
     23 C         139.8708  141.9288  170.2419 C.ar    1  UNL1       -0.0002
     24 C         139.2735  140.6896  169.6439 C.ar    1  UNL1       -0.0007
     25 C         141.9091  138.3811  155.5122 C.3     1  UNL1        0.1447
     26 C         142.6345  137.2588  154.8309 C.3     1  UNL1        0.0988
     27 N         142.5314  135.8627  155.3697 N.3     1  UNL1       -0.2710
     28 C         143.2771  135.3161  156.5508 C.3     1  UNL1        0.0722
     29 C         142.8711  133.8837  156.7329 C.3     1  UNL1        0.0188
     30 C         141.8744  133.5449  155.6644 C.3     1  UNL1        0.0188
     31 C         141.6644  134.7681  154.8218 C.3     1  UNL1        0.0722
@<TRIPOS>BOND
     1    10    11    2
     2    11    12   ar
     3    12    13   ar
     4    13    17    1
     5    17    18    1
     6    18    19    1
     7    19    20   ar
     8    20    21   ar
     9    21    22   ar
    10    22    23   ar
    11    23    24   ar
    12    13    14   ar
    13    14    15   ar
    14    15    16   ar
    15    16     1    1
    16     1     2   ar
    17     2     3   ar
    18     3     4   ar
    19     4     5   ar
    20     5     6   ar
    21     6     7   ar
    22     7     8   ar
    23     8    25    1
    24    25    26    1
    25    26    27    1
    26    27    28    1
    27    28    29    1
    28    29    30    1
    29    30    31    1
    30     5     9   ar
    31    16    11   ar
    32     9     1   ar
    33    24    19   ar
    34     8     4   ar
    35    31    27    1
@<TRIPOS>MOLECULE
*****
 31 35 0 0 0
SMALL
GASTEIGER

@<TRIPOS>ATOM
      1 C         141.8393  143.6359  161.1639 C.ar    1  UNL1        0.0670
      2 C         140.9977  142.4713  161.5941 C.ar    1  UNL1        0.0191
      3 C         141.2069  141.8530  162.9446 C.ar    1  UNL1        0.0203
      4 C         142.2579  142.3994  163.8649 C.ar    1  UNL1        0.0795
      5 C         143.0995  143.5641  163.4347 C.ar    1  UNL1        0.0396
      6 C         144.0516  143.8845  164.5487 C.ar    1  UNL1        0.1216
      7 N         143.7983  142.9179  165.6674 N.ar    1  UNL1       -0.1677
      8 N         142.6897  142.0000  165.2448 N.ar    1  UNL1       -0.2494
      9 C         142.8903  144.1823  162.0842 C.ar    1  UNL1        0.0207
     10 O         139.6153  145.6050  160.7439 O.2     1  UNL1       -0.2665
     11 C         140.5181  145.2387  159.6033 C.ar    1  UNL1        0.2679
     12 C         140.3088  145.8570  158.2528 C.ar    1  UNL1        0.0980
     13 C         141.2116  145.4908  157.1122 C.ar    1  UNL1        0.1453
     14 C         142.3236  144.5063  157.3222 C.ar    1  UNL1        0.0561
     15 C         142.5329  143.8880  158.6728 C.ar    1  UNL1        0.0860
     16 N         141.6301  144.2542  159.8133 N.ar    1  UNL1       -0.2729
     17 O         141.0023  146.1091  155.7617 O.3     1  UNL1       -0.4704
     18 C         139.6408  146.5957  155.3625 C.3     1  UNL1        0.2320
     19 C         139.3631  148.0679  155.2862 C.ar    1  UNL1        0.0212
     20 C         139.8293  148.8585  154.0999 C.ar    1  UNL1       -0.0007
     21 C         139.5516  150.3306  154.0235 C.ar    1  UNL1       -0.0002
     22 C         138.8075  151.0120  155.1336 C.ar    1  UNL1       -0.0000
     23 C         138.3413  150.2213  156.3199 C.ar    1  UNL1       -0.0002
     24 C         138.6190  148.7493  156.3962 C.ar    1  UNL1       -0.0007
     25 C         142.1140  140.8795  166.0591 C.3     1  UNL1        0.1447
     26 C         142.5965  140.6457  167.4600 C.3     1  UNL1        0.0988
     27 N         142.3427  141.6740  168.5221 N.3     1  UNL1       -0.2710
     28 C         141.0426  142.3781  168.7749 C.3     1  UNL1        0.0722
     29 C         141.2409  143.3180  169.9270 C.3     1  UNL1        0.0188
     30 C         142.6635  143.1947  170.3863 C.3     1  UNL1        0.0188
     31 C         143.3445  142.1786  169.5180 C.3     1  UNL1        0.0722
@<TRIPOS>BOND
     1    10    11    2
     2    11    12   ar
     3    12    13   ar
     4    13    17    1
     5    17    18    1
     6    18    19    1
     7    19    20   ar
     8    20    21   ar
     9    21    22   ar
    10    22    23   ar
    11    23    24   ar
    12    13    14   ar
    13    14    15   ar
    14    15    16   ar
    15    16     1    1
    16     1     2   ar
    17     2     3   ar
    18     3     4   ar
    19     4     5   ar
    20     5     6   ar
    21     6     7   ar
    22     7     8   ar
    23     8    25    1
    24    25    26    1
    25    26    27    1
    26    27    28    1
    27    28    29    1
    28    29    30    1
    29    30    31    1
    30     5     9   ar
    31    16    11   ar
    32     9     1   ar
    33    24    19   ar
    34     8     4   ar
    35    31    27    1
@<TRIPOS>MOLECULE
*****
 31 35 0 0 0
SMALL
GASTEIGER

@<TRIPOS>ATOM
      1 C         141.8704  143.7347  161.1809 C.ar    1  UNL1        0.0670
      2 C         141.1357  142.4936  161.5931 C.ar    1  UNL1        0.0191
      3 C         141.4156  141.8641  162.9255 C.ar    1  UNL1        0.0203
      4 C         142.4302  142.4757  163.8456 C.ar    1  UNL1        0.0795
      5 C         143.1649  143.7167  163.4334 C.ar    1  UNL1        0.0396
      6 C         144.1027  144.0903  164.5429 C.ar    1  UNL1        0.1216
      7 N         143.9476  143.0802  165.6408 N.ar    1  UNL1       -0.1677
      8 N         142.9140  142.0822  165.2100 N.ar    1  UNL1       -0.2494
      9 C         142.8849  144.3463  162.1010 C.ar    1  UNL1        0.0207
     10 O         139.5710  145.6370  160.8741 O.2     1  UNL1       -0.2665
     11 C         140.4408  145.3155  159.6950 C.ar    1  UNL1        0.2679
     12 C         140.1609  145.9450  158.3627 C.ar    1  UNL1        0.0980
     13 C         141.0307  145.6235  157.1836 C.ar    1  UNL1        0.1453
     14 C         142.1803  144.6723  157.3370 C.ar    1  UNL1        0.0561
     15 C         142.4602  144.0427  158.6694 C.ar    1  UNL1        0.0860
     16 N         141.5905  144.3643  159.8484 N.ar    1  UNL1       -0.2729
     17 O         140.7507  146.2531  155.8513 O.3     1  UNL1       -0.4704
     18 C         139.4051  146.8550  155.5741 C.3     1  UNL1        0.2320
     19 C         139.2970  148.2943  155.1658 C.ar    1  UNL1        0.0212
     20 C         139.8844  148.7506  153.8632 C.ar    1  UNL1       -0.0007
     21 C         139.7762  150.1899  153.4550 C.ar    1  UNL1       -0.0002
     22 C         139.0807  151.1729  154.3493 C.ar    1  UNL1       -0.0000
     23 C         138.4933  150.7167  155.6519 C.ar    1  UNL1       -0.0002
     24 C         138.6015  149.2774  156.0602 C.ar    1  UNL1       -0.0007
     25 C         142.4462  140.8986  166.0039 C.3     1  UNL1        0.1447
     26 C         141.2835  141.0366  166.9415 C.3     1  UNL1        0.0988
     27 N         140.0395  140.2289  166.7177 N.3     1  UNL1       -0.2710
     28 C         139.4643  139.8463  165.3862 C.3     1  UNL1        0.0722
     29 C         138.2217  139.0429  165.6318 C.3     1  UNL1        0.0188
     30 C         138.0289  138.9289  167.1149 C.3     1  UNL1        0.0188
     31 C         139.1524  139.6619  167.7860 C.3     1  UNL1        0.0722
@<TRIPOS>BOND
     1    10    11    2
     2    11    12   ar
     3    12    13   ar
     4    13    17    1
     5    17    18    1
     6    18    19    1
     7    19    20   ar
     8    20    21   ar
     9    21    22   ar
    10    22    23   ar
    11    23    24   ar
    12    13    14   ar
    13    14    15   ar
    14    15    16   ar
    15    16     1    1
    16     1     2   ar
    17     2     3   ar
    18     3     4   ar
    19     4     5   ar
    20     5     6   ar
    21     6     7   ar
    22     7     8   ar
    23     8    25    1
    24    25    26    1
    25    26    27    1
    26    27    28    1
    27    28    29    1
    28    29    30    1
    29    30    31    1
    30     5     9   ar
    31    16    11   ar
    32     9     1   ar
    33    24    19   ar
    34     8     4   ar
    35    31    27    1
@<TRIPOS>MOLECULE
*****
 31 35 0 0 0
SMALL
GASTEIGER

@<TRIPOS>ATOM
      1 C         140.0541  139.0166  158.9370 C.ar    1  UNL1        0.0670
      2 C         139.5286  138.3834  160.1910 C.ar    1  UNL1        0.0191
      3 C         138.8141  139.2196  161.2109 C.ar    1  UNL1        0.0203
      4 C         138.6251  140.6891  160.9767 C.ar    1  UNL1        0.0795
      5 C         139.1507  141.3224  159.7227 C.ar    1  UNL1        0.0396
      6 C         138.8170  142.7841  159.7666 C.ar    1  UNL1        0.1216
      7 N         138.0852  143.0543  161.0478 N.ar    1  UNL1       -0.1677
      8 N         137.9666  141.7595  161.7958 N.ar    1  UNL1       -0.2494
      9 C         139.8652  140.4862  158.7028 C.ar    1  UNL1        0.0207
     10 O         143.0400  138.7469  159.0440 O.2     1  UNL1       -0.2665
     11 C         142.2616  138.0455  157.9705 C.ar    1  UNL1        0.2679
     12 C         142.9761  137.2094  156.9506 C.ar    1  UNL1        0.0980
     13 C         142.1977  136.5080  155.8772 C.ar    1  UNL1        0.1453
     14 C         140.7048  136.6429  155.8237 C.ar    1  UNL1        0.0561
     15 C         139.9902  137.4791  156.8436 C.ar    1  UNL1        0.0860
     16 N         140.7686  138.1804  157.9170 N.ar    1  UNL1       -0.2729
     17 O         142.9123  135.6719  154.8573 O.3     1  UNL1       -0.4704
     18 C         142.6872  134.1896  154.8119 C.3     1  UNL1        0.2320
     19 C         143.5068  133.2796  155.6782 C.ar    1  UNL1        0.0212
     20 C         143.8879  131.9157  155.1837 C.ar    1  UNL1       -0.0007
     21 C         144.7075  131.0059  156.0499 C.ar    1  UNL1       -0.0002
     22 C         145.1460  131.4599  157.4106 C.ar    1  UNL1       -0.0000
     23 C         144.7649  132.8238  157.9051 C.ar    1  UNL1       -0.0002
     24 C         143.9453  133.7336  157.0389 C.ar    1  UNL1       -0.0007
     25 C         137.3056  141.5685  163.1286 C.3     1  UNL1        0.1447
     26 C         138.1398  141.4553  164.3701 C.3     1  UNL1        0.0988
     27 N         139.0050  140.2490  164.5850 N.3     1  UNL1       -0.2710
     28 C         138.5305  138.8838  164.9864 C.3     1  UNL1        0.0722
     29 C         139.7289  137.9873  165.0857 C.3     1  UNL1        0.0188
     30 C         140.9441  138.7983  164.7457 C.3     1  UNL1        0.0188
     31 C         140.4966  140.1962  164.4363 C.3     1  UNL1        0.0722
@<TRIPOS>BOND
     1    10    11    2
     2    11    12   ar
     3    12    13   ar
     4    13    17    1
     5    17    18    1
     6    18    19    1
     7    19    20   ar
     8    20    21   ar
     9    21    22   ar
    10    22    23   ar
    11    23    24   ar
    12    13    14   ar
    13    14    15   ar
    14    15    16   ar
    15    16     1    1
    16     1     2   ar
    17     2     3   ar
    18     3     4   ar
    19     4     5   ar
    20     5     6   ar
    21     6     7   ar
    22     7     8   ar
    23     8    25    1
    24    25    26    1
    25    26    27    1
    26    27    28    1
    27    28    29    1
    28    29    30    1
    29    30    31    1
    30     5     9   ar
    31    16    11   ar
    32     9     1   ar
    33    24    19   ar
    34     8     4   ar
    35    31    27    1
@<TRIPOS>MOLECULE
*****
 31 35 0 0 0
SMALL
GASTEIGER

@<TRIPOS>ATOM
      1 C         140.6091  139.9454  159.2060 C.ar    1  UNL1        0.0670
      2 C         141.9911  139.4342  159.4862 C.ar    1  UNL1        0.0191
      3 C         142.5446  138.2919  158.6870 C.ar    1  UNL1        0.0203
      4 C         141.7159  137.6608  157.6076 C.ar    1  UNL1        0.0795
      5 C         140.3339  138.1720  157.3275 C.ar    1  UNL1        0.0396
      6 C         139.7557  137.3561  156.2094 C.ar    1  UNL1        0.1216
      7 N         140.7805  136.3407  155.7985 N.ar    1  UNL1       -0.1677
      8 N         141.9920  136.5290  156.6626 N.ar    1  UNL1       -0.2494
      9 C         139.7804  139.3143  158.1267 C.ar    1  UNL1        0.0207
     10 O         138.9117  139.4039  161.6197 O.2     1  UNL1       -0.2665
     11 C         139.2069  140.8170  161.2121 C.ar    1  UNL1        0.2679
     12 C         138.6534  141.9593  162.0113 C.ar    1  UNL1        0.0980
     13 C         138.9486  143.3724  161.6038 C.ar    1  UNL1        0.1453
     14 C         139.7973  143.6432  160.3970 C.ar    1  UNL1        0.0561
     15 C         140.3508  142.5008  159.5977 C.ar    1  UNL1        0.0860
     16 N         140.0556  141.0878  160.0053 N.ar    1  UNL1       -0.2729
     17 O         138.3951  144.5147  162.4030 O.3     1  UNL1       -0.4704
     18 C         139.0364  144.9008  163.7028 C.3     1  UNL1        0.2320
     19 C         140.4738  144.5581  163.9608 C.ar    1  UNL1        0.0212
     20 C         141.5640  145.3924  163.3563 C.ar    1  UNL1       -0.0007
     21 C         143.0013  145.0497  163.6144 C.ar    1  UNL1       -0.0002
     22 C         143.3484  143.8727  164.4770 C.ar    1  UNL1       -0.0000
     23 C         142.2583  143.0384  165.0815 C.ar    1  UNL1       -0.0002
     24 C         140.8210  143.3811  164.8234 C.ar    1  UNL1       -0.0007
     25 C         143.2574  135.7265  156.5939 C.3     1  UNL1        0.1447
     26 C         143.3043  134.4686  155.7781 C.3     1  UNL1        0.0988
     27 N         143.9755  133.2440  156.3257 N.3     1  UNL1       -0.2710
     28 C         144.2026  131.9583  155.5874 C.3     1  UNL1        0.0722
     29 C         144.9048  131.0099  156.5132 C.3     1  UNL1        0.0188
     30 C         145.1118  131.7094  157.8239 C.3     1  UNL1        0.0188
     31 C         144.5374  133.0903  157.7080 C.3     1  UNL1        0.0722
@<TRIPOS>BOND
     1    10    11    2
     2    11    12   ar
     3    12    13   ar
     4    13    17    1
     5    17    18    1
     6    18    19    1
     7    19    20   ar
     8    20    21   ar
     9    21    22   ar
    10    22    23   ar
    11    23    24   ar
    12    13    14   ar
    13    14    15   ar
    14    15    16   ar
    15    16     1    1
    16     1     2   ar
    17     2     3   ar
    18     3     4   ar
    19     4     5   ar
    20     5     6   ar
    21     6     7   ar
    22     7     8   ar
    23     8    25    1
    24    25    26    1
    25    26    27    1
    26    27    28    1
    27    28    29    1
    28    29    30    1
    29    30    31    1
    30     5     9   ar
    31    16    11   ar
    32     9     1   ar
    33    24    19   ar
    34     8     4   ar
    35    31    27    1
