@<TRIPOS>MOLECULE
*****
 41 46 0 0 0
SMALL
GASTEIGER

@<TRIPOS>ATOM
      1 N         139.9891  140.1966  167.1498 N.3     1  UNL1       -0.2722
      2 C         138.7727  139.6027  166.5034 C.3     1  UNL1        0.0738
      3 C         138.5018  139.8469  165.0485 C.3     1  UNL1        0.0374
      4 C         139.4473  140.6849  164.2398 C.3     1  UNL1        0.0832
      5 C         140.6636  141.2787  164.8862 C.3     1  UNL1        0.1103
      6 C         140.9345  141.0346  166.3411 C.3     1  UNL1        0.0829
      7 N         139.1763  140.9290  162.7848 N.am    1  UNL1       -0.3006
      8 C         139.1929  139.7836  161.8164 C.2     1  UNL1        0.2669
      9 O         139.4804  138.3942  162.3029 O.2     1  UNL1       -0.2684
     10 H         138.9876  141.8409  162.4655 H       1  UNL1        0.1497
     11 C         138.9219  140.0278  160.3613 C.ar    1  UNL1        0.1761
     12 C         138.6076  141.3532  159.7334 C.ar    1  UNL1        0.0673
     13 C         138.4091  141.1340  158.2627 C.ar    1  UNL1        0.1792
     14 O         138.6008  139.6729  157.9819 O.2     1  UNL1       -0.3532
     15 N         138.9177  138.9893  159.2789 N.ar    1  UNL1       -0.0723
     16 C         138.0773  142.1902  157.2507 C.ar    1  UNL1        0.0648
     17 C         139.0321  143.3208  157.0060 C.ar    1  UNL1        0.0077
     18 C         138.7003  144.3771  155.9939 C.ar    1  UNL1        0.0299
     19 C         137.4136  144.3026  155.2266 C.ar    1  UNL1        0.1424
     20 F         137.0817  145.3588  154.2146 F       1  UNL1       -0.2041
     21 C         136.4587  143.1720  155.4714 C.ar    1  UNL1        0.0593
     22 C         136.7905  142.1157  156.4834 C.ar    1  UNL1        0.1453
     23 F         135.8357  140.9851  156.7281 F       1  UNL1       -0.2040
     24 C         141.6090  142.1168  164.0775 C.2     1  UNL1        0.2252
     25 O         142.1450  141.2163  163.0042 O.2     1  UNL1       -0.2750
     26 N         141.8336  143.5550  164.4393 N.am    1  UNL1       -0.3010
     27 H         141.3605  143.9490  165.2076 H       1  UNL1        0.1497
     28 C         142.7791  144.3930  163.6307 C.3     1  UNL1        0.1089
     29 C         144.0321  145.1109  163.2251 C.3     1  UNL1        0.0274
     30 C         143.9930  144.3384  164.5101 C.3     1  UNL1        0.0274
     31 C         141.8935  144.7387  162.4704 C.ar    1  UNL1        0.1549
     32 N         142.2973  144.3539  161.0780 N.ar    1  UNL1       -0.2276
     33 C         141.4118  144.6996  159.9177 C.ar    1  UNL1        0.1019
     34 C         140.1224  145.4302  160.1499 C.ar    1  UNL1        0.0413
     35 C         139.7186  145.8150  161.5423 C.ar    1  UNL1        0.1019
     36 N         140.6042  145.4693  162.7026 N.ar    1  UNL1       -0.2276
     37 C         140.2600  139.9525  168.6048 C.3     1  UNL1        0.0720
     38 C         138.4968  140.2824  170.0413 C.3     1  UNL1        0.0014
     39 C         139.7832  140.9362  169.6318 C.3     1  UNL1        0.0147
     40 C         139.7530  142.1471  170.5167 C.3     1  UNL1        0.0014
     41 C         140.9039  141.9318  169.5790 C.3     1  UNL1        0.0014
@<TRIPOS>BOND
     1    38    39    1
     2    39    37    1
     3    37     1    1
     4     1     2    1
     5     2     3    1
     6     3     4    1
     7     4     7    1
     8     7     8   am
     9     8     9    2
    10     8    11    1
    11    11    12   ar
    12    12    13   ar
    13    13    16    1
    14    16    17   ar
    15    17    18   ar
    16    18    19   ar
    17    19    20    1
    18    19    21   ar
    19    21    22   ar
    20    22    23    1
    21    13    14   ar
    22    14    15   ar
    23     4     5    1
    24     5    24    1
    25    24    25    2
    26    24    26   am
    27    26    28    1
    28    28    31    1
    29    31    32   ar
    30    32    33   ar
    31    33    34   ar
    32    34    35   ar
    33    35    36   ar
    34    28    29    1
    35    29    30    1
    36     5     6    1
    37    39    40    1
    38    40    41    1
    39    41    39    1
    40     6     1    1
    41    15    11   ar
    42    30    28    1
    43    22    16   ar
    44    36    31   ar
    45     7    10    1
    46    26    27    1
@<TRIPOS>MOLECULE
*****
 41 46 0 0 0
SMALL
GASTEIGER

@<TRIPOS>ATOM
      1 N         142.2380  140.2114  167.5377 N.3     1  UNL1       -0.2722
      2 C         142.9015  138.9904  166.9730 C.3     1  UNL1        0.0738
      3 C         142.8018  138.6934  165.5061 C.3     1  UNL1        0.0374
      4 C         142.0387  139.6174  164.6040 C.3     1  UNL1        0.0832
      5 C         141.3752  140.8384  165.1687 C.3     1  UNL1        0.1103
      6 C         141.4749  141.1354  166.6355 C.3     1  UNL1        0.0829
      7 N         141.9391  139.3203  163.1370 N.am    1  UNL1       -0.3006
      8 C         143.1377  139.4975  162.2528 C.2     1  UNL1        0.2669
      9 O         144.4360  139.9718  162.8355 O.2     1  UNL1       -0.2684
     10 H         141.0870  139.0090  162.7546 H       1  UNL1        0.1497
     11 C         143.0381  139.2004  160.7858 C.ar    1  UNL1        0.1761
     12 C         141.7893  138.8223  160.0457 C.ar    1  UNL1        0.0673
     13 C         142.1491  138.6175  158.6039 C.ar    1  UNL1        0.1792
     14 O         143.6202  138.8691  158.4531 O.2     1  UNL1       -0.3532
     15 N         144.1696  139.2293  159.8016 N.ar    1  UNL1       -0.0723
     16 C         141.2039  138.2293  157.5059 C.ar    1  UNL1        0.0648
     17 C         140.0597  139.1308  157.1476 C.ar    1  UNL1        0.0077
     18 C         139.1144  138.7426  156.0496 C.ar    1  UNL1        0.0299
     19 C         139.3134  137.4530  155.3097 C.ar    1  UNL1        0.1424
     20 F         138.3681  137.0648  154.2117 F       1  UNL1       -0.2041
     21 C         140.4575  136.5515  155.6680 C.ar    1  UNL1        0.0593
     22 C         141.4028  136.9397  156.7661 C.ar    1  UNL1        0.1453
     23 F         142.5470  136.0383  157.1243 F       1  UNL1       -0.2040
     24 C         140.6121  141.7623  164.2665 C.2     1  UNL1        0.2252
     25 O         141.6195  142.3363  163.3148 O.2     1  UNL1       -0.2750
     26 N         139.1335  141.9366  164.4487 N.am    1  UNL1       -0.3010
     27 H         138.6639  141.4446  165.1605 H       1  UNL1        0.1497
     28 C         138.3704  142.8606  163.5465 C.3     1  UNL1        0.1089
     29 C         137.6536  144.0874  163.0658 C.3     1  UNL1        0.0274
     30 C         138.2389  144.0535  164.4464 C.3     1  UNL1        0.0274
     31 C         138.2368  141.9886  162.3334 C.ar    1  UNL1        0.1549
     32 N         138.6339  142.5132  160.9854 N.ar    1  UNL1       -0.2276
     33 C         138.5004  141.6412  159.7722 C.ar    1  UNL1        0.1019
     34 C         137.9697  140.2446  159.9071 C.ar    1  UNL1        0.0413
     35 C         137.5727  139.7201  161.2550 C.ar    1  UNL1        0.1019
     36 N         137.7062  140.5921  162.4682 N.ar    1  UNL1       -0.2276
     37 C         142.3376  140.5085  169.0047 C.3     1  UNL1        0.0720
     38 C         143.6914  142.3399  169.3123 C.3     1  UNL1        0.0014
     39 C         142.2607  141.9258  169.4898 C.3     1  UNL1        0.0147
     40 C         141.6870  143.1993  170.0366 C.3     1  UNL1        0.0014
     41 C         140.8032  142.0039  169.8358 C.3     1  UNL1        0.0014
@<TRIPOS>BOND
     1    38    39    1
     2    39    37    1
     3    37     1    1
     4     1     2    1
     5     2     3    1
     6     3     4    1
     7     4     7    1
     8     7     8   am
     9     8     9    2
    10     8    11    1
    11    11    12   ar
    12    12    13   ar
    13    13    16    1
    14    16    17   ar
    15    17    18   ar
    16    18    19   ar
    17    19    20    1
    18    19    21   ar
    19    21    22   ar
    20    22    23    1
    21    13    14   ar
    22    14    15   ar
    23     4     5    1
    24     5    24    1
    25    24    25    2
    26    24    26   am
    27    26    28    1
    28    28    31    1
    29    31    32   ar
    30    32    33   ar
    31    33    34   ar
    32    34    35   ar
    33    35    36   ar
    34    28    29    1
    35    29    30    1
    36     5     6    1
    37    39    40    1
    38    40    41    1
    39    41    39    1
    40     6     1    1
    41    15    11   ar
    42    30    28    1
    43    22    16   ar
    44    36    31   ar
    45     7    10    1
    46    26    27    1
@<TRIPOS>MOLECULE
*****
 41 46 0 0 0
SMALL
GASTEIGER

@<TRIPOS>ATOM
      1 N         140.8210  144.3038  157.6695 N.3     1  UNL1       -0.2722
      2 C         140.7728  145.4041  158.6877 C.3     1  UNL1        0.0738
      3 C         140.9571  145.0883  160.1424 C.3     1  UNL1        0.0374
      4 C         141.1896  143.6722  160.5789 C.3     1  UNL1        0.0832
      5 C         141.2379  142.5719  159.5607 C.3     1  UNL1        0.1103
      6 C         141.0536  142.8877  158.1059 C.3     1  UNL1        0.0829
      7 N         141.3740  143.3564  162.0337 N.am    1  UNL1       -0.3006
      8 C         142.7270  143.4962  162.6659 C.2     1  UNL1        0.2669
      9 O         143.8957  143.9516  161.8434 O.2     1  UNL1       -0.2684
     10 H         140.6069  143.0575  162.5736 H       1  UNL1        0.1497
     11 C         142.9113  143.1804  164.1208 C.ar    1  UNL1        0.1761
     12 C         141.9638  142.3965  164.9796 C.ar    1  UNL1        0.0673
     13 C         142.5423  142.3247  166.3618 C.ar    1  UNL1        0.1792
     14 O         143.8474  143.0643  166.3570 O.2     1  UNL1       -0.3532
     15 N         144.0754  143.5931  164.9720 N.ar    1  UNL1       -0.0723
     16 C         141.9243  141.6346  167.5415 C.ar    1  UNL1        0.0648
     17 C         142.5296  140.3686  168.0716 C.ar    1  UNL1        0.0077
     18 C         141.9116  139.6784  169.2514 C.ar    1  UNL1        0.0299
     19 C         140.6884  140.2543  169.9010 C.ar    1  UNL1        0.1424
     20 F         140.0704  139.5641  171.0807 F       1  UNL1       -0.2041
     21 C         140.0831  141.5202  169.3709 C.ar    1  UNL1        0.0593
     22 C         140.7011  142.2104  168.1912 C.ar    1  UNL1        0.1453
     23 F         140.0958  143.4763  167.6611 F       1  UNL1       -0.2040
     24 C         141.4704  141.1557  159.9971 C.2     1  UNL1        0.2252
     25 O         140.2086  140.7218  160.6823 O.2     1  UNL1       -0.2750
     26 N         142.7812  140.4870  159.7064 N.am    1  UNL1       -0.3010
     27 H         143.4889  140.9775  159.2292 H       1  UNL1        0.1497
     28 C         143.0138  139.0708  160.1429 C.3     1  UNL1        0.1089
     29 C         143.0887  137.5737  160.0894 C.3     1  UNL1        0.0274
     30 C         142.6409  138.3456  158.8839 C.3     1  UNL1        0.0274
     31 C         143.4674  139.3042  161.5535 C.ar    1  UNL1        0.1549
     32 N         142.8329  138.5448  162.6807 N.ar    1  UNL1       -0.2276
     33 C         143.2865  138.7781  164.0913 C.ar    1  UNL1        0.1019
     34 C         144.3747  139.7709  164.3746 C.ar    1  UNL1        0.0413
     35 C         145.0092  140.5303  163.2474 C.ar    1  UNL1        0.1019
     36 N         144.5556  140.2970  161.8369 N.ar    1  UNL1       -0.2276
     37 C         140.6367  144.6195  156.2146 C.3     1  UNL1        0.0720
     38 C         138.3946  144.2878  155.8351 C.3     1  UNL1        0.0014
     39 C         139.4242  145.3759  155.7591 C.3     1  UNL1        0.0147
     40 C         138.5692  146.5102  155.2772 C.3     1  UNL1        0.0014
     41 C         140.0327  146.7268  155.5249 C.3     1  UNL1        0.0014
@<TRIPOS>BOND
     1    38    39    1
     2    39    37    1
     3    37     1    1
     4     1     2    1
     5     2     3    1
     6     3     4    1
     7     4     7    1
     8     7     8   am
     9     8     9    2
    10     8    11    1
    11    11    12   ar
    12    12    13   ar
    13    13    16    1
    14    16    17   ar
    15    17    18   ar
    16    18    19   ar
    17    19    20    1
    18    19    21   ar
    19    21    22   ar
    20    22    23    1
    21    13    14   ar
    22    14    15   ar
    23     4     5    1
    24     5    24    1
    25    24    25    2
    26    24    26   am
    27    26    28    1
    28    28    31    1
    29    31    32   ar
    30    32    33   ar
    31    33    34   ar
    32    34    35   ar
    33    35    36   ar
    34    28    29    1
    35    29    30    1
    36     5     6    1
    37    39    40    1
    38    40    41    1
    39    41    39    1
    40     6     1    1
    41    15    11   ar
    42    30    28    1
    43    22    16   ar
    44    36    31   ar
    45     7    10    1
    46    26    27    1
@<TRIPOS>MOLECULE
*****
 41 46 0 0 0
SMALL
GASTEIGER

@<TRIPOS>ATOM
      1 N         142.3284  139.9454  167.4995 N.3     1  UNL1       -0.2722
      2 C         143.0607  138.7866  166.8906 C.3     1  UNL1        0.0738
      3 C         143.0006  138.5560  165.4097 C.3     1  UNL1        0.0374
      4 C         142.2082  139.4843  164.5377 C.3     1  UNL1        0.0832
      5 C         141.4759  140.6431  165.1466 C.3     1  UNL1        0.1103
      6 C         141.5360  140.8737  166.6275 C.3     1  UNL1        0.0829
      7 N         142.1481  139.2536  163.0567 N.am    1  UNL1       -0.3006
      8 C         143.3842  139.4128  162.2221 C.2     1  UNL1        0.2669
      9 O         144.6805  139.8026  162.8684 O.2     1  UNL1       -0.2684
     10 H         141.2973  138.9978  162.6325 H       1  UNL1        0.1497
     11 C         143.3241  139.1821  160.7411 C.ar    1  UNL1        0.1761
     12 C         142.6564  138.0273  160.0551 C.ar    1  UNL1        0.0673
     13 C         142.8408  138.1972  158.5761 C.ar    1  UNL1        0.1792
     14 O         143.6224  139.4571  158.3482 O.2     1  UNL1       -0.3532
     15 N         143.9211  140.0657  159.6862 N.ar    1  UNL1       -0.0723
     16 C         142.3328  137.2701  157.5120 C.ar    1  UNL1        0.0648
     17 C         143.1390  136.0686  157.1167 C.ar    1  UNL1        0.0077
     18 C         142.6310  135.1415  156.0526 C.ar    1  UNL1        0.0299
     19 C         141.3167  135.4159  155.3838 C.ar    1  UNL1        0.1424
     20 F         140.8087  134.4888  154.3197 F       1  UNL1       -0.2041
     21 C         140.5104  136.6174  155.7791 C.ar    1  UNL1        0.0593
     22 C         141.0185  137.5445  156.8433 C.ar    1  UNL1        0.1453
     23 F         140.2122  138.7460  157.2386 F       1  UNL1       -0.2040
     24 C         140.6835  141.5714  164.2745 C.2     1  UNL1        0.2252
     25 O         141.6637  142.1694  163.3093 O.2     1  UNL1       -0.2750
     26 N         139.2076  141.7273  164.4915 N.am    1  UNL1       -0.3010
     27 H         138.7589  141.2203  165.2063 H       1  UNL1        0.1497
     28 C         138.4152  142.6555  163.6195 C.3     1  UNL1        0.1089
     29 C         137.6670  143.8775  163.1755 C.3     1  UNL1        0.0274
     30 C         138.2673  143.8235  164.5490 C.3     1  UNL1        0.0274
     31 C         138.2879  141.8100  162.3870 C.ar    1  UNL1        0.1549
     32 N         137.8041  140.3944  162.4954 N.ar    1  UNL1       -0.2276
     33 C         137.6768  139.5489  161.2630 C.ar    1  UNL1        0.1019
     34 C         138.0333  140.1191  159.9221 C.ar    1  UNL1        0.0413
     35 C         138.5170  141.5348  159.8138 C.ar    1  UNL1        0.1019
     36 N         138.6443  142.3803  161.0462 N.ar    1  UNL1       -0.2276
     37 C         142.3885  140.1761  168.9805 C.3     1  UNL1        0.0720
     38 C         140.6761  141.3600  169.9537 C.3     1  UNL1        0.0014
     39 C         142.1065  141.5392  169.5393 C.3     1  UNL1        0.0147
     40 C         142.3212  142.9646  169.9542 C.3     1  UNL1        0.0014
     41 C         143.4390  142.1919  169.3189 C.3     1  UNL1        0.0014
@<TRIPOS>BOND
     1    38    39    1
     2    39    37    1
     3    37     1    1
     4     1     2    1
     5     2     3    1
     6     3     4    1
     7     4     7    1
     8     7     8   am
     9     8     9    2
    10     8    11    1
    11    11    12   ar
    12    12    13   ar
    13    13    16    1
    14    16    17   ar
    15    17    18   ar
    16    18    19   ar
    17    19    20    1
    18    19    21   ar
    19    21    22   ar
    20    22    23    1
    21    13    14   ar
    22    14    15   ar
    23     4     5    1
    24     5    24    1
    25    24    25    2
    26    24    26   am
    27    26    28    1
    28    28    31    1
    29    31    32   ar
    30    32    33   ar
    31    33    34   ar
    32    34    35   ar
    33    35    36   ar
    34    28    29    1
    35    29    30    1
    36     5     6    1
    37    39    40    1
    38    40    41    1
    39    41    39    1
    40     6     1    1
    41    15    11   ar
    42    30    28    1
    43    22    16   ar
    44    36    31   ar
    45     7    10    1
    46    26    27    1
@<TRIPOS>MOLECULE
*****
 41 46 0 0 0
SMALL
GASTEIGER

@<TRIPOS>ATOM
      1 N         142.4403  141.4877  167.3681 N.3     1  UNL1       -0.2722
      2 C         143.3984  142.5684  166.9632 C.3     1  UNL1        0.0738
      3 C         143.7129  142.7872  165.5130 C.3     1  UNL1        0.0374
      4 C         143.0692  141.9252  164.4677 C.3     1  UNL1        0.0832
      5 C         142.1112  140.8444  164.8726 C.3     1  UNL1        0.1103
      6 C         141.7967  140.6256  166.3228 C.3     1  UNL1        0.0829
      7 N         143.3838  142.1440  163.0174 N.am    1  UNL1       -0.3006
      8 C         142.5244  143.0559  162.1929 C.2     1  UNL1        0.2669
      9 O         141.3506  143.7491  162.8186 O.2     1  UNL1       -0.2684
     10 H         144.1542  141.6890  162.6067 H       1  UNL1        0.1497
     11 C         142.8390  143.2747  160.7426 C.ar    1  UNL1        0.1761
     12 C         143.6975  142.3939  159.8840 C.ar    1  UNL1        0.0673
     13 C         143.7394  142.9875  158.5071 C.ar    1  UNL1        0.1792
     14 O         142.9067  144.2352  158.5147 O.2     1  UNL1       -0.3532
     15 N         142.3502  144.4127  159.8963 N.ar    1  UNL1       -0.0723
     16 C         144.4832  142.4311  157.3293 C.ar    1  UNL1        0.0648
     17 C         143.7285  141.8198  156.1862 C.ar    1  UNL1        0.0077
     18 C         144.4724  141.2635  155.0084 C.ar    1  UNL1        0.0299
     19 C         145.9710  141.3184  154.9738 C.ar    1  UNL1        0.1424
     20 F         146.7148  140.7621  153.7961 F       1  UNL1       -0.2041
     21 C         146.7257  141.9298  156.1170 C.ar    1  UNL1        0.0593
     22 C         145.9818  142.4861  157.2947 C.ar    1  UNL1        0.1453
     23 F         146.7365  143.0974  158.4378 F       1  UNL1       -0.2040
     24 C         141.4676  139.9824  163.8272 C.2     1  UNL1        0.2252
     25 O         142.5857  139.2384  163.1591 O.2     1  UNL1       -0.2750
     26 N         139.9787  140.0076  163.6469 N.am    1  UNL1       -0.3010
     27 H         139.4239  140.5899  164.2147 H       1  UNL1        0.1497
     28 C         139.3351  139.1456  162.6016 C.3     1  UNL1        0.1089
     29 C         138.5938  137.9986  161.9813 C.3     1  UNL1        0.0274
     30 C         138.8303  138.0256  163.4622 C.3     1  UNL1        0.0274
     31 C         139.6164  139.9662  161.3779 C.ar    1  UNL1        0.1549
     32 N         140.4603  139.4016  160.2739 N.ar    1  UNL1       -0.2276
     33 C         140.7416  140.2222  159.0502 C.ar    1  UNL1        0.1019
     34 C         140.1789  141.6076  158.9306 C.ar    1  UNL1        0.0413
     35 C         139.3349  142.1722  160.0345 C.ar    1  UNL1        0.1019
     36 N         139.0536  141.3516  161.2582 N.ar    1  UNL1       -0.2276
     37 C         142.1258  141.2688  168.8184 C.3     1  UNL1        0.0720
     38 C         140.4935  142.8663  169.0734 C.3     1  UNL1        0.0014
     39 C         140.7141  141.4013  169.3080 C.3     1  UNL1        0.0147
     40 C         139.3791  141.0251  169.8790 C.3     1  UNL1        0.0014
     41 C         140.4445  139.9823  169.7126 C.3     1  UNL1        0.0014
@<TRIPOS>BOND
     1    38    39    1
     2    39    37    1
     3    37     1    1
     4     1     2    1
     5     2     3    1
     6     3     4    1
     7     4     7    1
     8     7     8   am
     9     8     9    2
    10     8    11    1
    11    11    12   ar
    12    12    13   ar
    13    13    16    1
    14    16    17   ar
    15    17    18   ar
    16    18    19   ar
    17    19    20    1
    18    19    21   ar
    19    21    22   ar
    20    22    23    1
    21    13    14   ar
    22    14    15   ar
    23     4     5    1
    24     5    24    1
    25    24    25    2
    26    24    26   am
    27    26    28    1
    28    28    31    1
    29    31    32   ar
    30    32    33   ar
    31    33    34   ar
    32    34    35   ar
    33    35    36   ar
    34    28    29    1
    35    29    30    1
    36     5     6    1
    37    39    40    1
    38    40    41    1
    39    41    39    1
    40     6     1    1
    41    15    11   ar
    42    30    28    1
    43    22    16   ar
    44    36    31   ar
    45     7    10    1
    46    26    27    1
@<TRIPOS>MOLECULE
*****
 41 46 0 0 0
SMALL
GASTEIGER

@<TRIPOS>ATOM
      1 N         142.9096  139.0740  157.8909 N.3     1  UNL1       -0.2722
      2 C         142.7469  137.9161  158.8305 C.3     1  UNL1        0.0738
      3 C         142.2608  138.1488  160.2303 C.3     1  UNL1        0.0374
      4 C         141.9374  139.5393  160.6906 C.3     1  UNL1        0.0832
      5 C         142.1000  140.6972  159.7510 C.3     1  UNL1        0.1103
      6 C         142.5861  140.4645  158.3512 C.3     1  UNL1        0.0829
      7 N         141.4512  139.7719  162.0905 N.am    1  UNL1       -0.3006
      8 C         139.9900  139.6507  162.4068 C.2     1  UNL1        0.2669
      9 O         139.0149  139.2969  161.3234 O.2     1  UNL1       -0.2684
     10 H         142.0913  140.0042  162.8016 H       1  UNL1        0.1497
     11 C         139.5039  139.8833  163.8067 C.ar    1  UNL1        0.1761
     12 C         140.3358  140.3568  164.9616 C.ar    1  UNL1        0.0673
     13 C         139.4466  140.4494  166.1662 C.ar    1  UNL1        0.1792
     14 O         138.0652  140.0331  165.7556 O.2     1  UNL1       -0.3532
     15 N         138.1007  139.6832  164.2975 N.ar    1  UNL1       -0.0723
     16 C         139.8653  140.8823  167.5399 C.ar    1  UNL1        0.0648
     17 C         139.4964  140.0515  168.7331 C.ar    1  UNL1        0.0077
     18 C         139.9151  140.4843  170.1069 C.ar    1  UNL1        0.0299
     19 C         140.7027  141.7481  170.2875 C.ar    1  UNL1        0.1424
     20 F         141.1214  142.1809  171.6613 F       1  UNL1       -0.2041
     21 C         141.0717  142.5789  169.0943 C.ar    1  UNL1        0.0593
     22 C         140.6530  142.1460  167.7206 C.ar    1  UNL1        0.1453
     23 F         141.0219  142.9769  166.5274 F       1  UNL1       -0.2040
     24 C         141.7766  142.0877  160.2113 C.2     1  UNL1        0.2252
     25 O         142.7410  142.3912  161.3194 O.2     1  UNL1       -0.2750
     26 N         140.6658  142.8548  159.5574 N.am    1  UNL1       -0.3010
     27 H         140.1490  142.4457  158.8261 H       1  UNL1        0.1497
     28 C         140.3424  144.2453  160.0176 C.3     1  UNL1        0.1089
     29 C         140.2701  145.7435  160.0343 C.3     1  UNL1        0.0274
     30 C         140.9532  145.0382  158.9004 C.3     1  UNL1        0.0274
     31 C         139.6192  143.9354  161.2947 C.ar    1  UNL1        0.1549
     32 N         138.3746  143.0987  161.2678 N.ar    1  UNL1       -0.2276
     33 C         137.6514  142.7888  162.5448 C.ar    1  UNL1        0.1019
     34 C         138.1728  143.3157  163.8489 C.ar    1  UNL1        0.0413
     35 C         139.4174  144.1524  163.8759 C.ar    1  UNL1        0.1019
     36 N         140.1406  144.4623  162.5988 N.ar    1  UNL1       -0.2276
     37 C         143.3957  138.8414  156.4910 C.3     1  UNL1        0.0720
     38 C         144.0016  136.8382  155.5417 C.3     1  UNL1        0.0014
     39 C         142.8063  137.7357  155.6664 C.3     1  UNL1        0.0147
     40 C         141.8018  136.9417  154.8851 C.3     1  UNL1        0.0014
     41 C         141.4062  138.2492  155.5048 C.3     1  UNL1        0.0014
@<TRIPOS>BOND
     1    38    39    1
     2    39    37    1
     3    37     1    1
     4     1     2    1
     5     2     3    1
     6     3     4    1
     7     4     7    1
     8     7     8   am
     9     8     9    2
    10     8    11    1
    11    11    12   ar
    12    12    13   ar
    13    13    16    1
    14    16    17   ar
    15    17    18   ar
    16    18    19   ar
    17    19    20    1
    18    19    21   ar
    19    21    22   ar
    20    22    23    1
    21    13    14   ar
    22    14    15   ar
    23     4     5    1
    24     5    24    1
    25    24    25    2
    26    24    26   am
    27    26    28    1
    28    28    31    1
    29    31    32   ar
    30    32    33   ar
    31    33    34   ar
    32    34    35   ar
    33    35    36   ar
    34    28    29    1
    35    29    30    1
    36     5     6    1
    37    39    40    1
    38    40    41    1
    39    41    39    1
    40     6     1    1
    41    15    11   ar
    42    30    28    1
    43    22    16   ar
    44    36    31   ar
    45     7    10    1
    46    26    27    1
@<TRIPOS>MOLECULE
*****
 41 46 0 0 0
SMALL
GASTEIGER

@<TRIPOS>ATOM
      1 N         141.9125  139.6884  167.6974 N.3     1  UNL1       -0.2722
      2 C         142.9749  138.9307  166.9578 C.3     1  UNL1        0.0738
      3 C         142.9804  138.9179  165.4579 C.3     1  UNL1        0.0374
      4 C         141.9235  139.6627  164.6976 C.3     1  UNL1        0.0832
      5 C         140.8610  140.4204  165.4372 C.3     1  UNL1        0.1103
      6 C         140.8555  140.4332  166.9371 C.3     1  UNL1        0.0829
      7 N         141.9291  139.6498  163.1976 N.am    1  UNL1       -0.3006
      8 C         141.2632  138.5298  162.4547 C.2     1  UNL1        0.2669
      9 O         140.5917  137.4225  163.2117 O.2     1  UNL1       -0.2684
     10 H         142.3698  140.3766  162.7007 H       1  UNL1        0.1497
     11 C         141.2687  138.5169  160.9547 C.ar    1  UNL1        0.1761
     12 C         142.4710  138.6971  160.0760 C.ar    1  UNL1        0.0673
     13 C         142.0183  138.6131  158.6483 C.ar    1  UNL1        0.1792
     14 O         140.5363  138.3811  158.6448 O.2     1  UNL1       -0.3532
     15 N         140.0731  138.3216  160.0702 N.ar    1  UNL1       -0.0723
     16 C         142.8939  138.7391  157.4369 C.ar    1  UNL1        0.0648
     17 C         143.0897  137.5625  156.5274 C.ar    1  UNL1        0.0077
     18 C         143.9652  137.6885  155.3160 C.ar    1  UNL1        0.0299
     19 C         144.6450  138.9911  155.0142 C.ar    1  UNL1        0.1424
     20 F         145.5206  139.1171  153.8028 F       1  UNL1       -0.2041
     21 C         144.4493  140.1677  155.9237 C.ar    1  UNL1        0.0593
     22 C         143.5737  140.0417  157.1351 C.ar    1  UNL1        0.1453
     23 F         143.3779  141.2183  158.0447 F       1  UNL1       -0.2040
     24 C         139.8041  141.1652  164.6769 C.2     1  UNL1        0.2252
     25 O         138.7271  140.1647  164.3782 O.2     1  UNL1       -0.2750
     26 N         139.9834  142.6239  164.3770 N.am    1  UNL1       -0.3010
     27 H         140.7948  143.0925  164.6791 H       1  UNL1        0.1497
     28 C         138.9264  143.3688  163.6167 C.3     1  UNL1        0.1089
     29 C         137.7538  144.2629  163.3419 C.3     1  UNL1        0.0274
     30 C         138.2263  144.0573  164.7505 C.3     1  UNL1        0.0274
     31 C         139.2595  142.9389  162.2187 C.ar    1  UNL1        0.1549
     32 N         140.6613  142.5324  161.8729 N.ar    1  UNL1       -0.2276
     33 C         140.9943  142.1026  160.4749 C.ar    1  UNL1        0.1019
     34 C         139.9254  142.0793  159.4227 C.ar    1  UNL1        0.0413
     35 C         138.5236  142.4859  159.7685 C.ar    1  UNL1        0.1019
     36 N         138.1906  142.9157  161.1665 N.ar    1  UNL1       -0.2276
     37 C         141.9069  139.7012  169.1974 C.3     1  UNL1        0.0720
     38 C         143.2200  141.5481  169.5798 C.3     1  UNL1        0.0014
     39 C         141.8675  141.0061  169.9361 C.3     1  UNL1        0.0147
     40 C         141.3584  142.1228  170.7985 C.3     1  UNL1        0.0014
     41 C         140.5013  140.9173  170.5489 C.3     1  UNL1        0.0014
@<TRIPOS>BOND
     1    38    39    1
     2    39    37    1
     3    37     1    1
     4     1     2    1
     5     2     3    1
     6     3     4    1
     7     4     7    1
     8     7     8   am
     9     8     9    2
    10     8    11    1
    11    11    12   ar
    12    12    13   ar
    13    13    16    1
    14    16    17   ar
    15    17    18   ar
    16    18    19   ar
    17    19    20    1
    18    19    21   ar
    19    21    22   ar
    20    22    23    1
    21    13    14   ar
    22    14    15   ar
    23     4     5    1
    24     5    24    1
    25    24    25    2
    26    24    26   am
    27    26    28    1
    28    28    31    1
    29    31    32   ar
    30    32    33   ar
    31    33    34   ar
    32    34    35   ar
    33    35    36   ar
    34    28    29    1
    35    29    30    1
    36     5     6    1
    37    39    40    1
    38    40    41    1
    39    41    39    1
    40     6     1    1
    41    15    11   ar
    42    30    28    1
    43    22    16   ar
    44    36    31   ar
    45     7    10    1
    46    26    27    1
@<TRIPOS>MOLECULE
*****
 41 46 0 0 0
SMALL
GASTEIGER

@<TRIPOS>ATOM
      1 N         142.0443  140.2145  167.8269 N.3     1  UNL1       -0.2722
      2 C         142.8875  139.1265  167.2311 C.3     1  UNL1        0.0738
      3 C         142.9842  138.9834  165.7411 C.3     1  UNL1        0.0374
      4 C         142.2376  139.9284  164.8469 C.3     1  UNL1        0.0832
      5 C         141.3944  141.0164  165.4427 C.3     1  UNL1        0.1103
      6 C         141.2977  141.1595  166.9327 C.3     1  UNL1        0.0829
      7 N         142.3343  139.7852  163.3568 N.am    1  UNL1       -0.3006
      8 C         143.6268  140.0844  162.6569 C.2     1  UNL1        0.2669
      9 O         144.8227  140.5266  163.4471 O.2     1  UNL1       -0.2684
     10 H         141.5494  139.4950  162.8382 H       1  UNL1        0.1497
     11 C         143.7235  139.9412  161.1669 C.ar    1  UNL1        0.1761
     12 C         143.9145  141.0586  160.1844 C.ar    1  UNL1        0.0673
     13 C         143.9552  140.4636  158.8080 C.ar    1  UNL1        0.1792
     14 O         143.7895  138.9786  158.9399 O.2     1  UNL1       -0.3532
     15 N         143.6463  138.6558  160.3977 N.ar    1  UNL1       -0.0723
     16 C         144.1309  141.2207  157.5251 C.ar    1  UNL1        0.0648
     17 C         145.2811  140.9007  156.6169 C.ar    1  UNL1        0.0077
     18 C         145.4567  141.6578  155.3339 C.ar    1  UNL1        0.0299
     19 C         144.4823  142.7348  154.9592 C.ar    1  UNL1        0.1424
     20 F         144.6579  143.4919  153.6763 F       1  UNL1       -0.2041
     21 C         143.3321  143.0547  155.8674 C.ar    1  UNL1        0.0593
     22 C         143.1565  142.2977  157.1503 C.ar    1  UNL1        0.1453
     23 F         142.0063  142.6176  158.0586 F       1  UNL1       -0.2040
     24 C         140.6478  141.9614  164.5484 C.2     1  UNL1        0.2252
     25 O         141.6866  142.6434  163.7083 O.2     1  UNL1       -0.2750
     26 N         139.1533  142.0541  164.6362 N.am    1  UNL1       -0.3010
     27 H         138.6623  141.4948  165.2806 H       1  UNL1        0.1497
     28 C         138.4067  142.9991  163.7420 C.3     1  UNL1        0.1089
     29 C         137.6966  144.2361  163.2777 C.3     1  UNL1        0.0274
     30 C         138.2524  144.1681  164.6691 C.3     1  UNL1        0.0274
     31 C         138.3016  142.1584  162.5042 C.ar    1  UNL1        0.1549
     32 N         138.7323  142.7160  161.1800 N.ar    1  UNL1       -0.2276
     33 C         138.6272  141.8752  159.9422 C.ar    1  UNL1        0.1019
     34 C         138.0915  140.4768  160.0287 C.ar    1  UNL1        0.0413
     35 C         137.6609  139.9192  161.3529 C.ar    1  UNL1        0.1019
     36 N         137.7659  140.7599  162.5907 N.ar    1  UNL1       -0.2276
     37 C         141.9476  140.3576  169.3169 C.3     1  UNL1        0.0720
     38 C         140.6852  141.8950  170.4676 C.3     1  UNL1        0.0014
     39 C         142.0811  141.7106  169.9507 C.3     1  UNL1        0.0147
     40 C         142.6994  142.9995  170.4049 C.3     1  UNL1        0.0014
     41 C         143.5235  141.9961  169.6538 C.3     1  UNL1        0.0014
@<TRIPOS>BOND
     1    38    39    1
     2    39    37    1
     3    37     1    1
     4     1     2    1
     5     2     3    1
     6     3     4    1
     7     4     7    1
     8     7     8   am
     9     8     9    2
    10     8    11    1
    11    11    12   ar
    12    12    13   ar
    13    13    16    1
    14    16    17   ar
    15    17    18   ar
    16    18    19   ar
    17    19    20    1
    18    19    21   ar
    19    21    22   ar
    20    22    23    1
    21    13    14   ar
    22    14    15   ar
    23     4     5    1
    24     5    24    1
    25    24    25    2
    26    24    26   am
    27    26    28    1
    28    28    31    1
    29    31    32   ar
    30    32    33   ar
    31    33    34   ar
    32    34    35   ar
    33    35    36   ar
    34    28    29    1
    35    29    30    1
    36     5     6    1
    37    39    40    1
    38    40    41    1
    39    41    39    1
    40     6     1    1
    41    15    11   ar
    42    30    28    1
    43    22    16   ar
    44    36    31   ar
    45     7    10    1
    46    26    27    1
@<TRIPOS>MOLECULE
*****
 41 46 0 0 0
SMALL
GASTEIGER

@<TRIPOS>ATOM
      1 N         142.0484  139.8545  167.6230 N.3     1  UNL1       -0.2722
      2 C         143.0212  139.0287  166.8345 C.3     1  UNL1        0.0738
      3 C         143.2148  139.2923  165.3706 C.3     1  UNL1        0.0374
      4 C         142.4357  140.3817  164.6952 C.3     1  UNL1        0.0832
      5 C         141.4629  141.2075  165.4837 C.3     1  UNL1        0.1103
      6 C         141.2693  140.9439  166.9476 C.3     1  UNL1        0.0829
      7 N         142.6294  140.6453  163.2313 N.am    1  UNL1       -0.3006
      8 C         143.5666  141.7266  162.7815 C.2     1  UNL1        0.2669
      9 O         144.3101  142.5444  163.7955 O.2     1  UNL1       -0.2684
     10 H         142.1414  140.1085  162.5657 H       1  UNL1        0.1497
     11 C         143.7603  141.9901  161.3175 C.ar    1  UNL1        0.1761
     12 C         144.0809  140.9636  160.2718 C.ar    1  UNL1        0.0673
     13 C         144.1861  141.6655  158.9502 C.ar    1  UNL1        0.1792
     14 O         143.9305  143.1258  159.1793 O.2     1  UNL1       -0.3532
     15 N         143.6673  143.3264  160.6423 N.ar    1  UNL1       -0.0723
     16 C         144.4930  141.0205  157.6313 C.ar    1  UNL1        0.0648
     17 C         143.6153  139.9205  157.1120 C.ar    1  UNL1        0.0077
     18 C         143.9222  139.2754  155.7931 C.ar    1  UNL1        0.0299
     19 C         145.1069  139.7303  154.9934 C.ar    1  UNL1        0.1424
     20 F         145.4138  139.0852  153.6744 F       1  UNL1       -0.2041
     21 C         145.9847  140.8303  155.5126 C.ar    1  UNL1        0.0593
     22 C         145.6777  141.4754  156.8316 C.ar    1  UNL1        0.1453
     23 F         146.5555  142.5754  157.3508 F       1  UNL1       -0.2040
     24 C         140.6838  142.2969  164.8083 C.2     1  UNL1        0.2252
     25 O         141.4284  143.5695  165.0840 O.2     1  UNL1       -0.2750
     26 N         139.4300  141.9656  164.0545 N.am    1  UNL1       -0.3010
     27 H         139.1185  141.0331  164.0031 H       1  UNL1        0.1497
     28 C         138.6509  143.0550  163.3791 C.3     1  UNL1        0.1089
     29 C         137.6704  144.1731  163.1834 C.3     1  UNL1        0.0274
     30 C         137.8003  143.5160  164.5254 C.3     1  UNL1        0.0274
     31 C         139.2309  142.9724  161.9983 C.ar    1  UNL1        0.1549
     32 N         139.7638  141.6674  161.4855 N.ar    1  UNL1       -0.2276
     33 C         140.3438  141.5848  160.1046 C.ar    1  UNL1        0.1019
     34 C         140.3909  142.8073  159.2366 C.ar    1  UNL1        0.0413
     35 C         139.8581  144.1123  159.7494 C.ar    1  UNL1        0.1019
     36 N         139.2781  144.1949  161.1302 N.ar    1  UNL1       -0.2276
     37 C         141.8547  139.5909  169.0869 C.3     1  UNL1        0.0720
     38 C         143.2785  141.1858  169.9298 C.3     1  UNL1        0.0014
     39 C         141.8550  140.7317  170.0608 C.3     1  UNL1        0.0147
     40 C         141.3608  141.7148  171.0803 C.3     1  UNL1        0.0014
     41 C         140.4314  140.6739  170.5301 C.3     1  UNL1        0.0014
@<TRIPOS>BOND
     1    38    39    1
     2    39    37    1
     3    37     1    1
     4     1     2    1
     5     2     3    1
     6     3     4    1
     7     4     7    1
     8     7     8   am
     9     8     9    2
    10     8    11    1
    11    11    12   ar
    12    12    13   ar
    13    13    16    1
    14    16    17   ar
    15    17    18   ar
    16    18    19   ar
    17    19    20    1
    18    19    21   ar
    19    21    22   ar
    20    22    23    1
    21    13    14   ar
    22    14    15   ar
    23     4     5    1
    24     5    24    1
    25    24    25    2
    26    24    26   am
    27    26    28    1
    28    28    31    1
    29    31    32   ar
    30    32    33   ar
    31    33    34   ar
    32    34    35   ar
    33    35    36   ar
    34    28    29    1
    35    29    30    1
    36     5     6    1
    37    39    40    1
    38    40    41    1
    39    41    39    1
    40     6     1    1
    41    15    11   ar
    42    30    28    1
    43    22    16   ar
    44    36    31   ar
    45     7    10    1
    46    26    27    1
