@<TRIPOS>MOLECULE
*****
 39 43 0 0 0
SMALL
GASTEIGER

@<TRIPOS>ATOM
      1 C         144.8395  139.5100  164.8108 C.3     1  UNL1        0.1747
      2 O         143.3306  141.5845  164.3990 O.2     1  UNL1       -0.2733
      3 C         144.1941  140.4799  163.8659 C.2     1  UNL1        0.2425
      4 N         144.4123  140.3452  162.3880 N.am    1  UNL1       -0.3018
      5 H         144.9790  139.6202  162.0382 H       1  UNL1        0.1495
      6 C         143.7668  141.3151  161.4432 C.3     1  UNL1        0.1035
      7 C         142.6223  141.2515  160.4758 C.3     1  UNL1        0.0933
      8 N         142.8542  142.6868  160.1070 N.3     1  UNL1       -0.2711
      9 C         143.9987  142.7505  161.0744 C.3     1  UNL1        0.0933
     10 C         142.2088  143.6568  159.1622 C.3     1  UNL1        0.0576
     11 C         142.7389  143.8108  157.7674 C.3     1  UNL1        0.0164
     12 C         142.0935  144.7807  156.8226 C.3     1  UNL1        0.0078
     13 C         140.9179  145.5966  157.2725 C.3     1  UNL1        0.0466
     14 C         140.3879  145.4425  158.6673 C.3     1  UNL1        0.0078
     15 C         141.0332  144.4727  159.6120 C.3     1  UNL1        0.0164
     16 C         140.2725  146.5665  156.3278 C.ar    1  UNL1        0.0879
     17 N         139.1502  147.5053  156.6583 N.ar    1  UNL1       -0.2412
     18 C         138.8201  148.2869  155.4213 C.ar    1  UNL1        0.1060
     19 C         139.7384  147.8313  154.3263 C.ar    1  UNL1        0.0572
     20 S         140.6360  146.7680  154.8864 S.2     1  UNL1       -0.0702
     21 N         143.9993  138.5112  165.5502 N.pl3   1  UNL1       -0.3093
     22 H         144.1774  137.5481  165.4503 H       1  UNL1        0.1487
     23 C         142.8877  138.9799  166.4417 C.ar    1  UNL1        0.1500
     24 N         143.0300  139.4317  167.8649 N.ar    1  UNL1       -0.1543
     25 N         141.6690  139.8101  168.3693 N.ar    1  UNL1       -0.2471
     26 C         140.6856  139.5921  167.2579 C.ar    1  UNL1        0.0807
     27 C         139.2015  139.7945  167.1767 C.ar    1  UNL1        0.0188
     28 C         138.4708  139.4839  165.9042 C.ar    1  UNL1        0.0054
     29 C         139.2240  138.9708  164.7128 C.ar    1  UNL1        0.0716
     30 C         140.7080  138.7683  164.7940 C.ar    1  UNL1        0.0082
     31 C         141.4388  139.0790  166.0665 C.ar    1  UNL1        0.0503
     32 C         138.4931  138.6601  163.4402 C.3     1  UNL1        0.4186
     33 F         137.7623  138.3495  162.1677 F       1  UNL1       -0.1659
     34 F         139.1535  137.3143  163.3895 F       1  UNL1       -0.1659
     35 F         137.8328  140.0059  163.4910 F       1  UNL1       -0.1659
     36 C         141.3477  140.3174  169.7439 C.3     1  UNL1        0.1591
     37 C         142.4513  140.5609  170.7304 C.3     1  UNL1        0.1635
     38 O         143.4639  139.4883  171.0029 O.3     1  UNL1       -0.3799
     39 H         143.0286  138.7336  171.4293 H       1  UNL1        0.2105
@<TRIPOS>BOND
     1     2     3    2
     2     3     1    1
     3     1    21    1
     4    21    23    1
     5    23    24   ar
     6    24    25   ar
     7    25    36    1
     8    36    37    1
     9    37    38    1
    10    25    26   ar
    11    26    27   ar
    12    27    28   ar
    13    28    29   ar
    14    29    32    1
    15    32    33    1
    16    32    34    1
    17    32    35    1
    18    29    30   ar
    19    30    31   ar
    20     3     4   am
    21     4     6    1
    22     6     7    1
    23     7     8    1
    24    10     8    1
    25    10    11    1
    26    11    12    1
    27    12    13    1
    28    13    16    1
    29    16    17   ar
    30    17    18   ar
    31    18    19   ar
    32    19    20   ar
    33    13    14    1
    34    14    15    1
    35     8     9    1
    36    31    23   ar
    37     9     6    1
    38    31    26   ar
    39    15    10    1
    40    20    16   ar
    41    21    22    1
    42    38    39    1
    43     4     5    1
@<TRIPOS>MOLECULE
*****
 39 43 0 0 0
SMALL
GASTEIGER

@<TRIPOS>ATOM
      1 C         138.9474  137.9135  163.6775 C.3     1  UNL1        0.1747
      2 O         139.3161  138.3410  161.1415 O.2     1  UNL1       -0.2733
      3 C         139.1056  138.8670  162.5303 C.2     1  UNL1        0.2425
      4 N         139.0532  140.3464  162.7722 N.am    1  UNL1       -0.3018
      5 H         138.9150  140.6916  163.6837 H       1  UNL1        0.1495
      6 C         139.2113  141.2999  161.6250 C.3     1  UNL1        0.1035
      7 C         138.3154  142.2828  160.9315 C.3     1  UNL1        0.0933
      8 N         139.4351  142.6482  160.0027 N.3     1  UNL1       -0.2711
      9 C         140.3311  141.6653  160.6962 C.3     1  UNL1        0.0933
     10 C         139.5933  143.6017  158.8555 C.3     1  UNL1        0.0576
     11 C         139.1411  143.2038  157.4818 C.3     1  UNL1        0.0164
     12 C         139.2992  144.1573  156.3346 C.3     1  UNL1        0.0078
     13 C         139.9096  145.5086  156.5613 C.3     1  UNL1        0.0466
     14 C         140.3618  145.9064  157.9351 C.3     1  UNL1        0.0078
     15 C         140.2037  144.9530  159.0821 C.3     1  UNL1        0.0164
     16 C         140.0678  146.4621  155.4142 C.ar    1  UNL1        0.0879
     17 N         140.9410  146.2578  154.2117 N.ar    1  UNL1       -0.2412
     18 C         140.7934  147.4569  153.3226 C.ar    1  UNL1        0.1060
     19 C         139.8290  148.4022  153.9756 C.ar    1  UNL1        0.0572
     20 S         139.3805  147.7874  155.2682 S.2     1  UNL1       -0.0702
     21 N         140.1561  137.4292  164.4223 N.pl3   1  UNL1       -0.3093
     22 H         140.1977  136.4986  164.7409 H       1  UNL1        0.1487
     23 C         141.3012  138.3627  164.6816 C.ar    1  UNL1        0.1500
     24 N         142.5664  138.4498  163.8805 N.ar    1  UNL1       -0.1543
     25 N         143.4293  139.5140  164.4913 N.ar    1  UNL1       -0.2471
     26 C         142.6974  140.0844  165.6698 C.ar    1  UNL1        0.0807
     27 C         143.0586  141.1599  166.6511 C.ar    1  UNL1        0.0188
     28 C         142.1047  141.5237  167.7499 C.ar    1  UNL1        0.0054
     29 C         140.7894  140.8122  167.8675 C.ar    1  UNL1        0.0716
     30 C         140.4282  139.7368  166.8862 C.ar    1  UNL1        0.0082
     31 C         141.3821  139.3729  165.7874 C.ar    1  UNL1        0.0503
     32 C         139.8354  141.1761  168.9664 C.3     1  UNL1        0.4186
     33 F         138.8815  141.5401  170.0652 F       1  UNL1       -0.1659
     34 F         139.1516  139.8500  168.8120 F       1  UNL1       -0.1659
     35 F         140.5192  142.5022  169.1207 F       1  UNL1       -0.1659
     36 C         144.7859  139.9339  164.0084 C.3     1  UNL1        0.1591
     37 C         144.9919  141.3137  163.4572 C.3     1  UNL1        0.1635
     38 O         146.3794  141.8103  163.1775 O.3     1  UNL1       -0.3799
     39 H         146.8670  141.8943  164.0118 H       1  UNL1        0.2105
@<TRIPOS>BOND
     1     2     3    2
     2     3     1    1
     3     1    21    1
     4    21    23    1
     5    23    24   ar
     6    24    25   ar
     7    25    36    1
     8    36    37    1
     9    37    38    1
    10    25    26   ar
    11    26    27   ar
    12    27    28   ar
    13    28    29   ar
    14    29    32    1
    15    32    33    1
    16    32    34    1
    17    32    35    1
    18    29    30   ar
    19    30    31   ar
    20     3     4   am
    21     4     6    1
    22     6     7    1
    23     7     8    1
    24    10     8    1
    25    10    11    1
    26    11    12    1
    27    12    13    1
    28    13    16    1
    29    16    17   ar
    30    17    18   ar
    31    18    19   ar
    32    19    20   ar
    33    13    14    1
    34    14    15    1
    35     8     9    1
    36    31    23   ar
    37     9     6    1
    38    31    26   ar
    39    15    10    1
    40    20    16   ar
    41    21    22    1
    42    38    39    1
    43     4     5    1
@<TRIPOS>MOLECULE
*****
 39 43 0 0 0
SMALL
GASTEIGER

@<TRIPOS>ATOM
      1 C         137.5457  144.2025  163.1706 C.3     1  UNL1        0.1747
      2 O         137.2968  141.7807  162.2634 O.2     1  UNL1       -0.2733
      3 C         137.8912  143.1537  162.1554 C.2     1  UNL1        0.2425
      4 N         138.8311  143.4779  161.0323 N.am    1  UNL1       -0.3018
      5 H         139.2212  144.3790  160.9615 H       1  UNL1        0.1495
      6 C         139.1766  142.4290  160.0171 C.3     1  UNL1        0.1035
      7 C         138.4234  141.7070  158.9395 C.3     1  UNL1        0.0933
      8 N         139.6654  140.9458  158.5815 N.3     1  UNL1       -0.2711
      9 C         140.4186  141.6678  159.6591 C.3     1  UNL1        0.0933
     10 C         140.0109  139.8969  157.5663 C.3     1  UNL1        0.0576
     11 C         140.6383  140.2928  156.2627 C.3     1  UNL1        0.0164
     12 C         140.9839  139.2440  155.2475 C.3     1  UNL1        0.0078
     13 C         140.7019  137.7993  155.5359 C.3     1  UNL1        0.0466
     14 C         140.0744  137.4034  156.8397 C.3     1  UNL1        0.0078
     15 C         139.7289  138.4522  157.8548 C.3     1  UNL1        0.0164
     16 C         141.0473  136.7504  154.5209 C.ar    1  UNL1        0.0879
     17 N         141.1075  135.2718  154.7662 N.ar    1  UNL1       -0.2412
     18 C         141.4907  134.6035  153.4791 C.ar    1  UNL1        0.1060
     19 C         141.6673  135.6691  152.4383 C.ar    1  UNL1        0.0572
     20 S         141.3934  136.9960  153.0821 S.2     1  UNL1       -0.0702
     21 N         138.2280  144.2069  164.5065 N.pl3   1  UNL1       -0.3093
     22 H         137.7964  144.6398  165.2783 H       1  UNL1        0.1487
     23 C         139.5678  143.5517  164.6665 C.ar    1  UNL1        0.1500
     24 N         140.8992  144.1933  164.4104 N.ar    1  UNL1       -0.1543
     25 N         141.9657  143.1780  164.6963 N.ar    1  UNL1       -0.2471
     26 C         141.2934  141.9089  165.1292 C.ar    1  UNL1        0.0807
     27 C         141.8392  140.5728  165.5378 C.ar    1  UNL1        0.0188
     28 C         140.9030  139.4677  165.9279 C.ar    1  UNL1        0.0054
     29 C         139.4210  139.6987  165.9095 C.ar    1  UNL1        0.0716
     30 C         138.8752  141.0347  165.5009 C.ar    1  UNL1        0.0082
     31 C         139.8114  142.1398  165.1108 C.ar    1  UNL1        0.0503
     32 C         138.4848  138.5935  166.2997 C.3     1  UNL1        0.4186
     33 F         137.5486  137.4884  166.6899 F       1  UNL1       -0.1659
     34 F         138.7469  137.9093  164.9908 F       1  UNL1       -0.1659
     35 F         138.2226  139.2777  167.6085 F       1  UNL1       -0.1659
     36 C         143.4448  143.3938  164.5713 C.3     1  UNL1        0.1591
     37 C         143.9696  144.6735  163.9906 C.3     1  UNL1        0.1635
     38 O         143.3601  145.2353  162.7404 O.3     1  UNL1       -0.3799
     39 H         143.5352  144.6362  161.9979 H       1  UNL1        0.2105
@<TRIPOS>BOND
     1     2     3    2
     2     3     1    1
     3     1    21    1
     4    21    23    1
     5    23    24   ar
     6    24    25   ar
     7    25    36    1
     8    36    37    1
     9    37    38    1
    10    25    26   ar
    11    26    27   ar
    12    27    28   ar
    13    28    29   ar
    14    29    32    1
    15    32    33    1
    16    32    34    1
    17    32    35    1
    18    29    30   ar
    19    30    31   ar
    20     3     4   am
    21     4     6    1
    22     6     7    1
    23     7     8    1
    24    10     8    1
    25    10    11    1
    26    11    12    1
    27    12    13    1
    28    13    16    1
    29    16    17   ar
    30    17    18   ar
    31    18    19   ar
    32    19    20   ar
    33    13    14    1
    34    14    15    1
    35     8     9    1
    36    31    23   ar
    37     9     6    1
    38    31    26   ar
    39    15    10    1
    40    20    16   ar
    41    21    22    1
    42    38    39    1
    43     4     5    1
@<TRIPOS>MOLECULE
*****
 39 43 0 0 0
SMALL
GASTEIGER

@<TRIPOS>ATOM
      1 C         137.9181  139.3731  161.8168 C.3     1  UNL1        0.1747
      2 O         139.2168  138.6650  159.6809 O.2     1  UNL1       -0.2733
      3 C         139.0816  139.5474  160.8863 C.2     1  UNL1        0.2425
      4 N         140.1099  140.6043  161.1612 N.am    1  UNL1       -0.3018
      5 H         140.0212  141.1835  161.9524 H       1  UNL1        0.1495
      6 C         141.2735  140.7786  160.2307 C.3     1  UNL1        0.1035
      7 C         141.4904  141.4823  158.9239 C.3     1  UNL1        0.0933
      8 N         142.9190  141.0251  158.9148 N.3     1  UNL1       -0.2711
      9 C         142.7021  140.3214  160.2216 C.3     1  UNL1        0.0933
     10 C         144.0825  141.1994  157.9843 C.3     1  UNL1        0.0576
     11 C         144.2868  140.2386  156.8507 C.3     1  UNL1        0.0164
     12 C         145.4503  140.4129  155.9202 C.3     1  UNL1        0.0078
     13 C         146.4096  141.5480  156.1233 C.3     1  UNL1        0.0466
     14 C         146.2052  142.5088  157.2570 C.3     1  UNL1        0.0078
     15 C         145.0418  142.3345  158.1874 C.3     1  UNL1        0.0164
     16 C         147.5731  141.7224  155.1929 C.ar    1  UNL1        0.0879
     17 N         149.0200  141.7571  155.5871 N.ar    1  UNL1       -0.2412
     18 C         149.8351  141.9489  154.3426 C.ar    1  UNL1        0.1060
     19 C         148.8920  142.0328  153.1792 C.ar    1  UNL1        0.0572
     20 S         147.4940  141.8929  153.7046 S.2     1  UNL1       -0.0702
     21 N         137.1164  140.5658  162.2469 N.pl3   1  UNL1       -0.3093
     22 H         136.1328  140.5330  162.2215 H       1  UNL1        0.1487
     23 C         137.8135  141.8086  162.7156 C.ar    1  UNL1        0.1500
     24 N         137.9030  143.1051  161.9666 N.ar    1  UNL1       -0.1543
     25 N         138.6882  144.0708  162.8038 N.ar    1  UNL1       -0.2471
     26 C         139.0840  143.3711  164.0702 C.ar    1  UNL1        0.0807
     27 C         139.8668  143.8265  165.2659 C.ar    1  UNL1        0.0188
     28 C         140.1090  142.8837  166.4072 C.ar    1  UNL1        0.0054
     29 C         139.5683  141.4856  166.3527 C.ar    1  UNL1        0.0716
     30 C         138.7855  141.0302  165.1570 C.ar    1  UNL1        0.0082
     31 C         138.5434  141.9730  164.0157 C.ar    1  UNL1        0.0503
     32 C         139.8106  140.5428  167.4940 C.3     1  UNL1        0.4186
     33 F         140.0527  139.6000  168.6353 F       1  UNL1       -0.1659
     34 F         140.9367  141.4107  167.9720 F       1  UNL1       -0.1659
     35 F         138.6844  139.6749  167.0161 F       1  UNL1       -0.1659
     36 C         139.0195  145.4874  162.4386 C.3     1  UNL1        0.1591
     37 C         140.4288  145.8610  162.0858 C.3     1  UNL1        0.1635
     38 O         141.4460  146.0596  163.1702 O.3     1  UNL1       -0.3799
     39 H         141.2024  146.8316  163.7046 H       1  UNL1        0.2105
@<TRIPOS>BOND
     1     2     3    2
     2     3     1    1
     3     1    21    1
     4    21    23    1
     5    23    24   ar
     6    24    25   ar
     7    25    36    1
     8    36    37    1
     9    37    38    1
    10    25    26   ar
    11    26    27   ar
    12    27    28   ar
    13    28    29   ar
    14    29    32    1
    15    32    33    1
    16    32    34    1
    17    32    35    1
    18    29    30   ar
    19    30    31   ar
    20     3     4   am
    21     4     6    1
    22     6     7    1
    23     7     8    1
    24    10     8    1
    25    10    11    1
    26    11    12    1
    27    12    13    1
    28    13    16    1
    29    16    17   ar
    30    17    18   ar
    31    18    19   ar
    32    19    20   ar
    33    13    14    1
    34    14    15    1
    35     8     9    1
    36    31    23   ar
    37     9     6    1
    38    31    26   ar
    39    15    10    1
    40    20    16   ar
    41    21    22    1
    42    38    39    1
    43     4     5    1
@<TRIPOS>MOLECULE
*****
 39 43 0 0 0
SMALL
GASTEIGER

@<TRIPOS>ATOM
      1 C         137.8300  144.4213  163.2046 C.3     1  UNL1        0.1747
      2 O         137.4189  141.9914  162.3821 O.2     1  UNL1       -0.2733
      3 C         138.2218  143.2578  162.3428 C.2     1  UNL1        0.2425
      4 N         139.4166  143.3608  161.4417 N.am    1  UNL1       -0.3018
      5 H         139.9435  144.1920  161.4159 H       1  UNL1        0.1495
      6 C         139.8084  142.1972  160.5799 C.3     1  UNL1        0.1035
      7 C         139.7119  141.8810  159.1168 C.3     1  UNL1        0.0933
      8 N         140.3625  140.5517  159.3612 N.3     1  UNL1       -0.2711
      9 C         140.4591  140.8679  160.8243 C.3     1  UNL1        0.0933
     10 C         140.7543  139.3882  158.4994 C.3     1  UNL1        0.0576
     11 C         142.1686  138.8884  158.5117 C.3     1  UNL1        0.0164
     12 C         142.5604  137.7248  157.6499 C.3     1  UNL1        0.0078
     13 C         141.5380  137.0611  156.7758 C.3     1  UNL1        0.0466
     14 C         140.1237  137.5610  156.7635 C.3     1  UNL1        0.0078
     15 C         139.7319  138.7244  157.6252 C.3     1  UNL1        0.0164
     16 C         141.9296  135.8976  155.9139 C.ar    1  UNL1        0.0879
     17 N         142.5503  134.6175  156.3895 N.ar    1  UNL1       -0.2412
     18 C         142.7736  133.7387  155.1946 C.ar    1  UNL1        0.1060
     19 C         142.2910  134.4757  153.9805 C.ar    1  UNL1        0.0572
     20 S         141.7694  135.8099  154.4250 S.2     1  UNL1       -0.0702
     21 N         138.8587  145.1028  164.0576 N.pl3   1  UNL1       -0.3093
     22 H         138.6087  145.8863  164.5988 H       1  UNL1        0.1487
     23 C         140.2682  144.5905  164.0861 C.ar    1  UNL1        0.1500
     24 N         141.3803  145.0182  163.1749 N.ar    1  UNL1       -0.1543
     25 N         142.6125  144.2525  163.5565 N.ar    1  UNL1       -0.2471
     26 C         142.2619  143.3516  164.7034 C.ar    1  UNL1        0.0807
     27 C         143.0747  142.3681  165.4920 C.ar    1  UNL1        0.0188
     28 C         142.4387  141.5934  166.6079 C.ar    1  UNL1        0.0054
     29 C         140.9898  141.8023  166.9352 C.ar    1  UNL1        0.0716
     30 C         140.1770  142.7858  166.1466 C.ar    1  UNL1        0.0082
     31 C         140.8130  143.5605  165.0307 C.ar    1  UNL1        0.0503
     32 C         140.3538  141.0276  168.0512 C.3     1  UNL1        0.4186
     33 F         139.7178  140.2528  169.1671 F       1  UNL1       -0.1659
     34 F         140.0795  142.3075  168.7835 F       1  UNL1       -0.1659
     35 F         140.6281  139.7476  167.3189 F       1  UNL1       -0.1659
     36 C         143.9589  144.3676  162.9054 C.3     1  UNL1        0.1591
     37 C         144.4553  143.2710  162.0101 C.3     1  UNL1        0.1635
     38 O         145.5612  142.3688  162.4717 O.3     1  UNL1       -0.3799
     39 H         146.3785  142.8823  162.5678 H       1  UNL1        0.2105
@<TRIPOS>BOND
     1     2     3    2
     2     3     1    1
     3     1    21    1
     4    21    23    1
     5    23    24   ar
     6    24    25   ar
     7    25    36    1
     8    36    37    1
     9    37    38    1
    10    25    26   ar
    11    26    27   ar
    12    27    28   ar
    13    28    29   ar
    14    29    32    1
    15    32    33    1
    16    32    34    1
    17    32    35    1
    18    29    30   ar
    19    30    31   ar
    20     3     4   am
    21     4     6    1
    22     6     7    1
    23     7     8    1
    24    10     8    1
    25    10    11    1
    26    11    12    1
    27    12    13    1
    28    13    16    1
    29    16    17   ar
    30    17    18   ar
    31    18    19   ar
    32    19    20   ar
    33    13    14    1
    34    14    15    1
    35     8     9    1
    36    31    23   ar
    37     9     6    1
    38    31    26   ar
    39    15    10    1
    40    20    16   ar
    41    21    22    1
    42    38    39    1
    43     4     5    1
@<TRIPOS>MOLECULE
*****
 39 43 0 0 0
SMALL
GASTEIGER

@<TRIPOS>ATOM
      1 C         142.6084  137.3444  157.5459 C.3     1  UNL1        0.1747
      2 O         141.7652  139.2519  159.0954 O.2     1  UNL1       -0.2733
      3 C         142.4757  137.9432  158.9148 C.2     1  UNL1        0.2425
      4 N         143.0535  137.2333  160.1031 N.am    1  UNL1       -0.3018
      5 H         143.5198  136.3744  159.9846 H       1  UNL1        0.1495
      6 C         142.9208  137.8321  161.4720 C.3     1  UNL1        0.1035
      7 C         141.8531  137.8443  162.5255 C.3     1  UNL1        0.0933
      8 N         142.7332  138.6789  163.4079 N.3     1  UNL1       -0.2711
      9 C         143.8010  138.6668  162.3545 C.3     1  UNL1        0.0933
     10 C         142.6005  139.2777  164.7768 C.3     1  UNL1        0.0576
     11 C         143.0988  138.5263  165.9756 C.3     1  UNL1        0.0164
     12 C         142.9661  139.1251  167.3445 C.3     1  UNL1        0.0078
     13 C         142.3351  140.4753  167.5146 C.3     1  UNL1        0.0466
     14 C         141.8368  141.2266  166.3157 C.3     1  UNL1        0.0078
     15 C         141.9695  140.6279  164.9469 C.3     1  UNL1        0.0164
     16 C         142.2023  141.0741  168.8834 C.ar    1  UNL1        0.0879
     17 N         141.3009  140.5831  169.9771 N.ar    1  UNL1       -0.2412
     18 C         141.4892  141.4748  171.1685 C.ar    1  UNL1        0.1060
     19 C         142.5071  142.5170  170.8111 C.ar    1  UNL1        0.0572
     20 S         142.9478  142.2694  169.3989 S.2     1  UNL1       -0.0702
     21 N         143.4470  136.1175  157.3421 N.pl3   1  UNL1       -0.3093
     22 H         144.1930  135.9238  157.9546 H       1  UNL1        0.1487
     23 C         143.1490  135.1858  156.2049 C.ar    1  UNL1        0.1500
     24 N         142.5710  135.5732  154.8760 N.ar    1  UNL1       -0.1543
     25 N         142.4415  134.3300  154.0468 N.ar    1  UNL1       -0.2471
     26 C         142.9394  133.1743  154.8631 C.ar    1  UNL1        0.0807
     27 C         143.0512  131.7086  154.5643 C.ar    1  UNL1        0.0188
     28 C         143.6002  130.7719  155.5993 C.ar    1  UNL1        0.0054
     29 C         144.0375  131.3009  156.9330 C.ar    1  UNL1        0.0716
     30 C         143.9258  132.7666  157.2319 C.ar    1  UNL1        0.0082
     31 C         143.3767  133.7032  156.1969 C.ar    1  UNL1        0.0503
     32 C         144.5866  130.3642  157.9680 C.3     1  UNL1        0.4186
     33 F         145.1356  129.4275  159.0029 F       1  UNL1       -0.1659
     34 F         143.5514  129.3449  157.5947 F       1  UNL1       -0.1659
     35 F         145.6218  131.3834  158.3413 F       1  UNL1       -0.1659
     36 C         141.9077  134.2555  152.6470 C.3     1  UNL1        0.1591
     37 C         141.4087  135.4963  151.9675 C.3     1  UNL1        0.1635
     38 O         142.2289  136.7517  152.0021 O.3     1  UNL1       -0.3799
     39 H         142.2837  137.0771  152.9143 H       1  UNL1        0.2105
@<TRIPOS>BOND
     1     2     3    2
     2     3     1    1
     3     1    21    1
     4    21    23    1
     5    23    24   ar
     6    24    25   ar
     7    25    36    1
     8    36    37    1
     9    37    38    1
    10    25    26   ar
    11    26    27   ar
    12    27    28   ar
    13    28    29   ar
    14    29    32    1
    15    32    33    1
    16    32    34    1
    17    32    35    1
    18    29    30   ar
    19    30    31   ar
    20     3     4   am
    21     4     6    1
    22     6     7    1
    23     7     8    1
    24    10     8    1
    25    10    11    1
    26    11    12    1
    27    12    13    1
    28    13    16    1
    29    16    17   ar
    30    17    18   ar
    31    18    19   ar
    32    19    20   ar
    33    13    14    1
    34    14    15    1
    35     8     9    1
    36    31    23   ar
    37     9     6    1
    38    31    26   ar
    39    15    10    1
    40    20    16   ar
    41    21    22    1
    42    38    39    1
    43     4     5    1
@<TRIPOS>MOLECULE
*****
 39 43 0 0 0
SMALL
GASTEIGER

@<TRIPOS>ATOM
      1 C         143.6250  139.7510  156.8361 C.3     1  UNL1        0.1747
      2 O         142.7223  141.2199  158.7796 O.2     1  UNL1       -0.2733
      3 C         143.3589  139.9497  158.2989 C.2     1  UNL1        0.2425
      4 N         143.7294  138.8780  159.2808 N.am    1  UNL1       -0.3018
      5 H         144.1472  138.0443  158.9652 H       1  UNL1        0.1495
      6 C         143.4632  139.0766  160.7436 C.3     1  UNL1        0.1035
      7 C         142.5681  138.4268  161.7566 C.3     1  UNL1        0.0933
      8 N         143.0869  139.3576  162.8123 N.3     1  UNL1       -0.2711
      9 C         143.9821  140.0075  161.7992 C.3     1  UNL1        0.0933
     10 C         142.8208  139.5563  164.2750 C.3     1  UNL1        0.0576
     11 C         143.4111  138.6118  165.2798 C.3     1  UNL1        0.0164
     12 C         143.1450  138.8105  166.7426 C.3     1  UNL1        0.0078
     13 C         142.2885  139.9535  167.2006 C.3     1  UNL1        0.0466
     14 C         141.6982  140.8980  166.1958 C.3     1  UNL1        0.0078
     15 C         141.9643  140.6993  164.7331 C.3     1  UNL1        0.0164
     16 C         142.0223  140.1523  168.6633 C.ar    1  UNL1        0.0879
     17 N         143.0597  140.2718  169.7402 N.ar    1  UNL1       -0.2412
     18 C         142.3504  140.4598  171.0484 C.ar    1  UNL1        0.1060
     19 C         140.8746  140.4565  170.7801 C.ar    1  UNL1        0.0572
     20 S         140.6718  140.2664  169.3061 S.2     1  UNL1       -0.0702
     21 N         143.9979  138.3931  156.3192 N.pl3   1  UNL1       -0.3093
     22 H         144.9391  138.1044  156.3280 H       1  UNL1        0.1487
     23 C         142.9368  137.4751  155.7889 C.ar    1  UNL1        0.1500
     24 N         141.7155  137.8888  155.0225 N.ar    1  UNL1       -0.1543
     25 N         140.9346  136.6516  154.6918 N.ar    1  UNL1       -0.2471
     26 C         141.6732  135.4732  155.2538 C.ar    1  UNL1        0.0807
     27 C         141.3788  134.0025  155.2358 C.ar    1  UNL1        0.0188
     28 C         142.3219  133.0407  155.8958 C.ar    1  UNL1        0.0054
     29 C         143.5593  133.5497  156.5738 C.ar    1  UNL1        0.0716
     30 C         143.8537  135.0204  156.5919 C.ar    1  UNL1        0.0082
     31 C         142.9106  135.9821  155.9319 C.ar    1  UNL1        0.0503
     32 C         144.5024  132.5879  157.2338 C.3     1  UNL1        0.4186
     33 F         145.4454  131.6260  157.8938 F       1  UNL1       -0.1659
     34 F         144.5266  133.4524  158.4593 F       1  UNL1       -0.1659
     35 F         144.4782  131.7233  156.0083 F       1  UNL1       -0.1659
     36 C         139.6420  136.6015  153.9325 C.3     1  UNL1        0.1591
     37 C         138.5885  137.6414  154.1756 C.3     1  UNL1        0.1635
     38 O         137.4837  137.3751  155.1546 O.3     1  UNL1       -0.3799
     39 H         136.9261  136.6533  154.8245 H       1  UNL1        0.2105
@<TRIPOS>BOND
     1     2     3    2
     2     3     1    1
     3     1    21    1
     4    21    23    1
     5    23    24   ar
     6    24    25   ar
     7    25    36    1
     8    36    37    1
     9    37    38    1
    10    25    26   ar
    11    26    27   ar
    12    27    28   ar
    13    28    29   ar
    14    29    32    1
    15    32    33    1
    16    32    34    1
    17    32    35    1
    18    29    30   ar
    19    30    31   ar
    20     3     4   am
    21     4     6    1
    22     6     7    1
    23     7     8    1
    24    10     8    1
    25    10    11    1
    26    11    12    1
    27    12    13    1
    28    13    16    1
    29    16    17   ar
    30    17    18   ar
    31    18    19   ar
    32    19    20   ar
    33    13    14    1
    34    14    15    1
    35     8     9    1
    36    31    23   ar
    37     9     6    1
    38    31    26   ar
    39    15    10    1
    40    20    16   ar
    41    21    22    1
    42    38    39    1
    43     4     5    1
@<TRIPOS>MOLECULE
*****
 39 43 0 0 0
SMALL
GASTEIGER

@<TRIPOS>ATOM
      1 C         141.1268  144.5021  159.7112 C.3     1  UNL1        0.1747
      2 O         142.8917  142.8796  158.7098 O.2     1  UNL1       -0.2733
      3 C         141.4760  143.1733  159.1091 C.2     1  UNL1        0.2425
      4 N         140.4094  142.1384  158.9062 N.am    1  UNL1       -0.3018
      5 H         139.4802  142.3312  159.1682 H       1  UNL1        0.1495
      6 C         140.7586  140.8097  158.3040 C.3     1  UNL1        0.1035
      7 C         140.8426  139.4023  158.8160 C.3     1  UNL1        0.0933
      8 N         141.2525  138.9306  157.4524 N.3     1  UNL1       -0.2711
      9 C         141.1685  140.3380  156.9403 C.3     1  UNL1        0.0933
     10 C         141.6017  137.6019  156.8502 C.3     1  UNL1        0.0576
     11 C         142.8704  136.9081  157.2487 C.3     1  UNL1        0.0164
     12 C         143.2196  135.5793  156.6466 C.3     1  UNL1        0.0078
     13 C         142.3001  134.9444  155.6459 C.3     1  UNL1        0.0466
     14 C         141.0313  135.6384  155.2475 C.3     1  UNL1        0.0078
     15 C         140.6821  136.9670  155.8496 C.3     1  UNL1        0.0164
     16 C         142.6492  133.6158  155.0438 C.ar    1  UNL1        0.0879
     17 N         143.6046  132.6115  155.6170 N.ar    1  UNL1       -0.2412
     18 C         143.6500  131.4331  154.6900 C.ar    1  UNL1        0.1060
     19 C         142.7226  131.7091  153.5438 C.ar    1  UNL1        0.0572
     20 S         142.1040  133.0580  153.7624 S.2     1  UNL1       -0.0702
     21 N         142.0348  145.1260  160.7293 N.pl3   1  UNL1       -0.3093
     22 H         142.3509  146.0502  160.6062 H       1  UNL1        0.1487
     23 C         142.4610  144.3418  161.9349 C.ar    1  UNL1        0.1500
     24 N         143.7975  143.6913  162.1362 N.ar    1  UNL1       -0.1543
     25 N         143.7880  143.0179  163.4765 N.ar    1  UNL1       -0.2471
     26 C         142.4456  143.2522  164.1035 C.ar    1  UNL1        0.0807
     27 C         141.8641  142.8261  165.4189 C.ar    1  UNL1        0.0188
     28 C         140.4625  143.2183  165.7815 C.ar    1  UNL1        0.0054
     29 C         139.6423  144.0366  164.8287 C.ar    1  UNL1        0.0716
     30 C         140.2238  144.4626  163.5133 C.ar    1  UNL1        0.0082
     31 C         141.6254  144.0704  163.1507 C.ar    1  UNL1        0.0503
     32 C         138.2406  144.4288  165.1913 C.3     1  UNL1        0.4186
     33 F         136.8389  144.8209  165.5539 F       1  UNL1       -0.1659
     34 F         138.7745  145.4325  166.1697 F       1  UNL1       -0.1659
     35 F         137.7067  143.4250  164.2129 F       1  UNL1       -0.1659
     36 C         144.9218  142.2458  164.0833 C.3     1  UNL1        0.1591
     37 C         144.8893  140.7460  164.0899 C.3     1  UNL1        0.1635
     38 O         144.9665  139.9886  162.7975 O.3     1  UNL1       -0.3799
     39 H         144.1715  140.1659  162.2708 H       1  UNL1        0.2105
@<TRIPOS>BOND
     1     2     3    2
     2     3     1    1
     3     1    21    1
     4    21    23    1
     5    23    24   ar
     6    24    25   ar
     7    25    36    1
     8    36    37    1
     9    37    38    1
    10    25    26   ar
    11    26    27   ar
    12    27    28   ar
    13    28    29   ar
    14    29    32    1
    15    32    33    1
    16    32    34    1
    17    32    35    1
    18    29    30   ar
    19    30    31   ar
    20     3     4   am
    21     4     6    1
    22     6     7    1
    23     7     8    1
    24    10     8    1
    25    10    11    1
    26    11    12    1
    27    12    13    1
    28    13    16    1
    29    16    17   ar
    30    17    18   ar
    31    18    19   ar
    32    19    20   ar
    33    13    14    1
    34    14    15    1
    35     8     9    1
    36    31    23   ar
    37     9     6    1
    38    31    26   ar
    39    15    10    1
    40    20    16   ar
    41    21    22    1
    42    38    39    1
    43     4     5    1
@<TRIPOS>MOLECULE
*****
 39 43 0 0 0
SMALL
GASTEIGER

@<TRIPOS>ATOM
      1 C         139.3618  143.3298  158.7748 C.3     1  UNL1        0.1747
      2 O         140.5065  141.1556  159.6187 O.2     1  UNL1       -0.2733
      3 C         139.9225  141.9660  158.4998 C.2     1  UNL1        0.2425
      4 N         139.8991  141.4127  157.1058 N.am    1  UNL1       -0.3018
      5 H         139.5157  141.9446  156.3714 H       1  UNL1        0.1495
      6 C         140.4598  140.0489  156.8308 C.3     1  UNL1        0.1035
      7 C         141.3371  139.4573  155.7677 C.3     1  UNL1        0.0933
      8 N         141.2526  138.1201  156.4419 N.3     1  UNL1       -0.2711
      9 C         140.3752  138.7115  157.5051 C.3     1  UNL1        0.0933
     10 C         141.8133  136.7563  156.1669 C.3     1  UNL1        0.0576
     11 C         141.0476  135.7885  155.3141 C.3     1  UNL1        0.0164
     12 C         141.6083  134.4247  155.0391 C.3     1  UNL1        0.0078
     13 C         142.9347  134.0286  155.6168 C.3     1  UNL1        0.0466
     14 C         143.7004  134.9964  156.4696 C.3     1  UNL1        0.0078
     15 C         143.1397  136.3602  156.7446 C.3     1  UNL1        0.0164
     16 C         143.4955  132.6649  155.3418 C.ar    1  UNL1        0.0879
     17 N         143.1360  131.7804  154.1849 N.ar    1  UNL1       -0.2412
     18 C         143.9326  130.5150  154.3037 C.ar    1  UNL1        0.1060
     19 C         144.7845  130.6174  155.5340 C.ar    1  UNL1        0.0572
     20 S         144.5144  131.9460  156.1757 S.2     1  UNL1       -0.0702
     21 N         140.2621  144.4269  159.2607 N.pl3   1  UNL1       -0.3093
     22 H         140.2367  145.3117  158.8298 H       1  UNL1        0.1487
     23 C         141.2011  144.1758  160.4032 C.ar    1  UNL1        0.1500
     24 N         142.6699  143.8927  160.2915 N.ar    1  UNL1       -0.1543
     25 N         143.2126  143.7057  161.6773 N.ar    1  UNL1       -0.2471
     26 C         142.0792  143.8731  162.6455 C.ar    1  UNL1        0.0807
     27 C         142.0186  143.7986  164.1424 C.ar    1  UNL1        0.0188
     28 C         140.7148  144.0146  164.8519 C.ar    1  UNL1        0.0054
     29 C         139.4716  144.3051  164.0644 C.ar    1  UNL1        0.0716
     30 C         139.5322  144.3796  162.5676 C.ar    1  UNL1        0.0082
     31 C         140.8360  144.1637  161.8581 C.ar    1  UNL1        0.0503
     32 C         138.1678  144.5211  164.7740 C.3     1  UNL1        0.4186
     33 F         136.8640  144.7371  165.4836 F       1  UNL1       -0.1659
     34 F         137.4297  144.0014  163.5760 F       1  UNL1       -0.1659
     35 F         138.9058  145.0407  165.9720 F       1  UNL1       -0.1659
     36 C         144.6384  143.4041  162.0325 C.3     1  UNL1        0.1591
     37 C         144.9789  142.1343  162.7548 C.3     1  UNL1        0.1635
     38 O         146.4084  141.8164  163.0796 O.3     1  UNL1       -0.3799
     39 H         146.9026  141.6729  162.2573 H       1  UNL1        0.2105
@<TRIPOS>BOND
     1     2     3    2
     2     3     1    1
     3     1    21    1
     4    21    23    1
     5    23    24   ar
     6    24    25   ar
     7    25    36    1
     8    36    37    1
     9    37    38    1
    10    25    26   ar
    11    26    27   ar
    12    27    28   ar
    13    28    29   ar
    14    29    32    1
    15    32    33    1
    16    32    34    1
    17    32    35    1
    18    29    30   ar
    19    30    31   ar
    20     3     4   am
    21     4     6    1
    22     6     7    1
    23     7     8    1
    24    10     8    1
    25    10    11    1
    26    11    12    1
    27    12    13    1
    28    13    16    1
    29    16    17   ar
    30    17    18   ar
    31    18    19   ar
    32    19    20   ar
    33    13    14    1
    34    14    15    1
    35     8     9    1
    36    31    23   ar
    37     9     6    1
    38    31    26   ar
    39    15    10    1
    40    20    16   ar
    41    21    22    1
    42    38    39    1
    43     4     5    1
