@<TRIPOS>MOLECULE
*****
 35 38 0 0 0
SMALL
GASTEIGER

@<TRIPOS>ATOM
      1 C         142.5838  141.3977  167.4260 C.ar    1  UNL1        0.1060
      2 C         142.2214  139.9423  167.4495 C.ar    1  UNL1        0.0215
      3 C         142.5804  139.0612  166.2899 C.ar    1  UNL1        0.0384
      4 C         143.3020  139.6356  165.1068 C.ar    1  UNL1        0.1432
      5 C         143.6644  141.0909  165.0833 C.ar    1  UNL1        0.0888
      6 C         143.3053  141.9720  166.2430 C.ar    1  UNL1        0.0259
      7 C         144.3859  141.6651  163.9003 C.2     1  UNL1        0.2525
      8 O         145.8856  141.6748  163.8687 O.2     1  UNL1       -0.2698
      9 N         143.6078  142.2296  162.7488 N.am    1  UNL1       -0.2660
     10 C         142.1130  142.2887  162.6393 C.3     1  UNL1        0.1236
     11 C         141.7693  142.9297  161.3275 C.ar    1  UNL1        0.0338
     12 C         140.6330  143.3624  160.4491 C.ar    1  UNL1        0.0990
     13 N         141.2131  143.9670  159.2049 N.ar    1  UNL1       -0.2286
     14 N         142.7080  143.9079  159.3144 N.ar    1  UNL1       -0.1680
     15 C         143.0517  143.2668  160.6262 C.ar    1  UNL1        0.0981
     16 C         144.1880  142.8342  161.5046 C.3     1  UNL1        0.1414
     17 C         140.4351  144.5314  158.0534 C.ar    1  UNL1        0.0855
     18 C         140.5793  145.9792  157.6887 C.ar    1  UNL1        0.0398
     19 C         139.8012  146.5438  156.5372 C.ar    1  UNL1        0.1000
     20 N         138.8789  145.6605  155.7504 N.ar    1  UNL1       -0.2480
     21 C         138.7346  144.2126  156.1152 C.ar    1  UNL1        0.0609
     22 C         137.8122  143.3293  155.3284 C.3     1  UNL1        0.0521
     23 C         139.5126  143.6481  157.2666 C.ar    1  UNL1        0.0339
     24 S         142.2248  142.2788  168.5857 S.O2    1  UNL1        0.0087
     25 O         143.6812  142.5023  168.8668 O.2     1  UNL1       -0.1686
     26 O         140.7684  142.0554  168.3045 O.2     1  UNL1       -0.1686
     27 C         140.4576  143.6511  169.9062 C.3     1  UNL1        0.0276
     28 C         141.8657  143.1600  169.7453 C.3     1  UNL1        0.1560
     29 O         143.6610  138.7544  163.9472 O.3     1  UNL1       -0.4702
     30 C         142.6949  138.5756  162.8137 C.3     1  UNL1        0.2599
     31 C         143.1362  138.8361  161.4040 C.3     1  UNL1        0.0566
     32 C         141.2876  138.1363  163.0900 C.3     1  UNL1        0.4340
     33 F         139.8802  137.6969  163.3663 F       1  UNL1       -0.1664
     34 F         140.7685  139.3250  162.3366 F       1  UNL1       -0.1664
     35 F         141.8065  136.9476  163.8434 F       1  UNL1       -0.1664
@<TRIPOS>BOND
     1    27    28    1
     2    28    24    1
     3    24    25    2
     4    24    26    2
     5    24     1    1
     6     1     2   ar
     7     2     3   ar
     8     3     4   ar
     9     4    29    1
    10    29    30    1
    11    30    31    1
    12    30    32    1
    13    32    33    1
    14    32    34    1
    15    32    35    1
    16     4     5   ar
    17     5     7    1
    18     7     8    2
    19     7     9   am
    20     9    10    1
    21    10    11    1
    22    11    12   ar
    23    12    13   ar
    24    13    17    1
    25    17    18   ar
    26    18    19   ar
    27    19    20   ar
    28    20    21   ar
    29    21    22    1
    30    21    23   ar
    31    13    14   ar
    32    14    15   ar
    33    15    16    1
    34     5     6   ar
    35     6     1   ar
    36    16     9    1
    37    15    11   ar
    38    23    17   ar
@<TRIPOS>MOLECULE
*****
 35 38 0 0 0
SMALL
GASTEIGER

@<TRIPOS>ATOM
      1 C         140.8017  141.6590  167.8997 C.ar    1  UNL1        0.1060
      2 C         140.1714  140.3235  168.1625 C.ar    1  UNL1        0.0215
      3 C         139.2725  139.7031  167.1344 C.ar    1  UNL1        0.0384
      4 C         139.0041  140.4182  165.8434 C.ar    1  UNL1        0.1432
      5 C         139.6345  141.7537  165.5805 C.ar    1  UNL1        0.0888
      6 C         140.5333  142.3741  166.6088 C.ar    1  UNL1        0.0259
      7 C         139.3660  142.4687  164.2896 C.2     1  UNL1        0.2525
      8 O         138.2062  143.4138  164.1828 O.2     1  UNL1       -0.2698
      9 N         140.2574  142.2386  163.1053 N.am    1  UNL1       -0.2660
     10 C         141.4485  141.3278  163.0621 C.3     1  UNL1        0.1236
     11 C         142.0414  141.4052  161.6864 C.ar    1  UNL1        0.0338
     12 C         143.1440  140.8901  160.8095 C.ar    1  UNL1        0.0990
     13 N         143.0008  141.5303  159.4605 N.ar    1  UNL1       -0.2286
     14 N         141.8096  142.4411  159.5037 N.ar    1  UNL1       -0.1680
     15 C         141.2168  142.3637  160.8794 C.ar    1  UNL1        0.0981
     16 C         140.1142  142.8788  161.7564 C.3     1  UNL1        0.1414
     17 C         143.8921  141.3002  158.2763 C.ar    1  UNL1        0.0855
     18 C         143.5658  140.2172  157.2911 C.ar    1  UNL1        0.0398
     19 C         144.4572  139.9870  156.1068 C.ar    1  UNL1        0.1000
     20 N         145.6749  140.8399  155.9077 N.ar    1  UNL1       -0.2480
     21 C         146.0012  141.9231  156.8929 C.ar    1  UNL1        0.0609
     22 C         147.2190  142.7760  156.6937 C.3     1  UNL1        0.0521
     23 C         145.1099  142.1532  158.0771 C.ar    1  UNL1        0.0339
     24 S         141.7005  142.2795  168.9279 S.O2    1  UNL1        0.0087
     25 O         140.5538  142.3416  169.8929 O.2     1  UNL1       -0.1686
     26 O         142.8472  142.2175  167.9629 O.2     1  UNL1       -0.1686
     27 C         144.0625  142.5703  169.9702 C.3     1  UNL1        0.0276
     28 C         142.5993  142.9000  169.9561 C.3     1  UNL1        0.1560
     29 O         138.1053  139.7977  164.8152 O.3     1  UNL1       -0.4702
     30 C         138.6495  138.7748  163.8626 C.3     1  UNL1        0.2599
     31 C         138.2306  138.7933  162.4224 C.3     1  UNL1        0.0566
     32 C         139.6126  137.7333  164.3501 C.3     1  UNL1        0.4340
     33 F         140.5758  136.6917  164.8377 F       1  UNL1       -0.1664
     34 F         140.6872  138.3218  163.4847 F       1  UNL1       -0.1664
     35 F         138.5382  137.1448  165.2155 F       1  UNL1       -0.1664
@<TRIPOS>BOND
     1    27    28    1
     2    28    24    1
     3    24    25    2
     4    24    26    2
     5    24     1    1
     6     1     2   ar
     7     2     3   ar
     8     3     4   ar
     9     4    29    1
    10    29    30    1
    11    30    31    1
    12    30    32    1
    13    32    33    1
    14    32    34    1
    15    32    35    1
    16     4     5   ar
    17     5     7    1
    18     7     8    2
    19     7     9   am
    20     9    10    1
    21    10    11    1
    22    11    12   ar
    23    12    13   ar
    24    13    17    1
    25    17    18   ar
    26    18    19   ar
    27    19    20   ar
    28    20    21   ar
    29    21    22    1
    30    21    23   ar
    31    13    14   ar
    32    14    15   ar
    33    15    16    1
    34     5     6   ar
    35     6     1   ar
    36    16     9    1
    37    15    11   ar
    38    23    17   ar
@<TRIPOS>MOLECULE
*****
 35 38 0 0 0
SMALL
GASTEIGER

@<TRIPOS>ATOM
      1 C         140.8797  140.6605  167.9132 C.ar    1  UNL1        0.1060
      2 C         142.3138  140.2259  167.8464 C.ar    1  UNL1        0.0215
      3 C         142.7611  139.2780  166.7734 C.ar    1  UNL1        0.0384
      4 C         141.7741  138.7646  165.7671 C.ar    1  UNL1        0.1432
      5 C         140.3400  139.1992  165.8339 C.ar    1  UNL1        0.0888
      6 C         139.8928  140.1472  166.9070 C.ar    1  UNL1        0.0259
      7 C         139.3531  138.6858  164.8277 C.2     1  UNL1        0.2525
      8 O         138.5493  137.4550  165.1260 O.2     1  UNL1       -0.2698
      9 N         139.1700  139.4032  163.5232 N.am    1  UNL1       -0.2660
     10 C         139.8988  140.6396  163.0870 C.3     1  UNL1        0.1236
     11 C         139.4052  141.0107  161.7201 C.ar    1  UNL1        0.0338
     12 C         139.5506  142.0042  160.6057 C.ar    1  UNL1        0.0990
     13 N         138.6065  141.6112  159.5082 N.ar    1  UNL1       -0.2286
     14 N         137.8777  140.3747  159.9444 N.ar    1  UNL1       -0.1680
     15 C         138.3713  140.0037  161.3114 C.ar    1  UNL1        0.0981
     16 C         138.2260  139.0102  162.4258 C.3     1  UNL1        0.1414
     17 C         138.4235  142.3285  158.2037 C.ar    1  UNL1        0.0855
     18 C         139.3348  143.4620  157.8367 C.ar    1  UNL1        0.0398
     19 C         139.1518  144.1794  156.5321 C.ar    1  UNL1        0.1000
     20 N         138.0573  143.7634  155.5946 N.ar    1  UNL1       -0.2480
     21 C         137.1459  142.6299  155.9616 C.ar    1  UNL1        0.0609
     22 C         136.0513  142.2138  155.0240 C.3     1  UNL1        0.0521
     23 C         137.3289  141.9125  157.2661 C.ar    1  UNL1        0.0339
     24 S         140.4325  141.6085  168.9862 S.O2    1  UNL1        0.0087
     25 O         141.1909  142.7189  168.3213 O.2     1  UNL1       -0.1686
     26 O         139.6742  140.4982  169.6510 O.2     1  UNL1       -0.1686
     27 C         140.3947  143.9985  170.0044 C.3     1  UNL1        0.0276
     28 C         139.9853  142.5565  170.0592 C.3     1  UNL1        0.1560
     29 O         142.2213  137.8167  164.6941 O.3     1  UNL1       -0.4702
     30 C         142.8181  138.3482  163.4248 C.3     1  UNL1        0.2599
     31 C         144.0839  139.1519  163.4702 C.3     1  UNL1        0.0566
     32 C         142.1493  138.0762  162.1100 C.3     1  UNL1        0.4340
     33 F         141.4805  137.8042  160.7952 F       1  UNL1       -0.1664
     34 F         141.2846  137.0397  162.7643 F       1  UNL1       -0.1664
     35 F         143.0140  139.1126  161.4558 F       1  UNL1       -0.1664
@<TRIPOS>BOND
     1    27    28    1
     2    28    24    1
     3    24    25    2
     4    24    26    2
     5    24     1    1
     6     1     2   ar
     7     2     3   ar
     8     3     4   ar
     9     4    29    1
    10    29    30    1
    11    30    31    1
    12    30    32    1
    13    32    33    1
    14    32    34    1
    15    32    35    1
    16     4     5   ar
    17     5     7    1
    18     7     8    2
    19     7     9   am
    20     9    10    1
    21    10    11    1
    22    11    12   ar
    23    12    13   ar
    24    13    17    1
    25    17    18   ar
    26    18    19   ar
    27    19    20   ar
    28    20    21   ar
    29    21    22    1
    30    21    23   ar
    31    13    14   ar
    32    14    15   ar
    33    15    16    1
    34     5     6   ar
    35     6     1   ar
    36    16     9    1
    37    15    11   ar
    38    23    17   ar
@<TRIPOS>MOLECULE
*****
 35 38 0 0 0
SMALL
GASTEIGER

@<TRIPOS>ATOM
      1 C         139.7798  143.4523  163.4001 C.ar    1  UNL1        0.1060
      2 C         138.7188  143.2241  164.4355 C.ar    1  UNL1        0.0215
      3 C         138.7443  141.9807  165.2741 C.ar    1  UNL1        0.0384
      4 C         139.8309  140.9655  165.0771 C.ar    1  UNL1        0.1432
      5 C         140.8919  141.1937  164.0417 C.ar    1  UNL1        0.0888
      6 C         140.8663  142.4372  163.2031 C.ar    1  UNL1        0.0259
      7 C         141.9784  140.1784  163.8448 C.2     1  UNL1        0.2525
      8 O         142.9208  139.8611  164.9678 O.2     1  UNL1       -0.2698
      9 N         142.1226  139.4805  162.5248 N.am    1  UNL1       -0.2660
     10 C         141.2596  139.6928  161.3164 C.3     1  UNL1        0.1236
     11 C         141.7587  138.7913  160.2264 C.ar    1  UNL1        0.0338
     12 C         141.5338  138.3653  158.8058 C.ar    1  UNL1        0.0990
     13 N         142.5662  137.3326  158.4626 N.ar    1  UNL1       -0.2286
     14 N         143.4292  137.1204  159.6711 N.ar    1  UNL1       -0.1680
     15 C         142.9301  138.0219  160.7611 C.ar    1  UNL1        0.0981
     16 C         143.1550  138.4479  162.1817 C.3     1  UNL1        0.1414
     17 C         142.7104  136.6348  157.1427 C.ar    1  UNL1        0.0855
     18 C         142.4117  137.3692  155.8694 C.ar    1  UNL1        0.0398
     19 C         142.5558  136.6713  154.5494 C.ar    1  UNL1        0.1000
     20 N         142.9987  135.2390  154.5029 N.ar    1  UNL1       -0.2480
     21 C         143.2974  134.5045  155.7762 C.ar    1  UNL1        0.0609
     22 C         143.7403  133.0720  155.7296 C.3     1  UNL1        0.0521
     23 C         143.1533  135.2023  157.0961 C.ar    1  UNL1        0.0339
     24 S         139.7543  144.6958  162.5615 S.O2    1  UNL1        0.0087
     25 O         141.1562  145.0136  162.9901 O.2     1  UNL1       -0.1686
     26 O         138.3524  144.3780  162.1329 O.2     1  UNL1       -0.1686
     27 C         140.2248  145.8998  160.3078 C.3     1  UNL1        0.0276
     28 C         139.7288  145.9392  161.7229 C.3     1  UNL1        0.1560
     29 O         139.8564  139.7220  165.9157 O.3     1  UNL1       -0.4702
     30 C         139.0398  138.5297  165.5141 C.3     1  UNL1        0.2599
     31 C         137.9378  138.0404  166.4064 C.3     1  UNL1        0.0566
     32 C         139.3250  137.8266  164.2202 C.3     1  UNL1        0.4340
     33 F         139.6104  137.1233  162.9262 F       1  UNL1       -0.1664
     34 F         138.2650  138.6433  163.5426 F       1  UNL1       -0.1664
     35 F         140.3851  137.0098  164.8977 F       1  UNL1       -0.1664
@<TRIPOS>BOND
     1    27    28    1
     2    28    24    1
     3    24    25    2
     4    24    26    2
     5    24     1    1
     6     1     2   ar
     7     2     3   ar
     8     3     4   ar
     9     4    29    1
    10    29    30    1
    11    30    31    1
    12    30    32    1
    13    32    33    1
    14    32    34    1
    15    32    35    1
    16     4     5   ar
    17     5     7    1
    18     7     8    2
    19     7     9   am
    20     9    10    1
    21    10    11    1
    22    11    12   ar
    23    12    13   ar
    24    13    17    1
    25    17    18   ar
    26    18    19   ar
    27    19    20   ar
    28    20    21   ar
    29    21    22    1
    30    21    23   ar
    31    13    14   ar
    32    14    15   ar
    33    15    16    1
    34     5     6   ar
    35     6     1   ar
    36    16     9    1
    37    15    11   ar
    38    23    17   ar
@<TRIPOS>MOLECULE
*****
 35 38 0 0 0
SMALL
GASTEIGER

@<TRIPOS>ATOM
      1 C         142.2838  140.0344  167.5509 C.ar    1  UNL1        0.1060
      2 C         143.1637  138.8948  167.1300 C.ar    1  UNL1        0.0215
      3 C         142.7866  138.0534  165.9468 C.ar    1  UNL1        0.0384
      4 C         141.5295  138.3517  165.1846 C.ar    1  UNL1        0.1432
      5 C         140.6497  139.4913  165.6055 C.ar    1  UNL1        0.0888
      6 C         141.0269  140.3327  166.7887 C.ar    1  UNL1        0.0259
      7 C         139.3927  139.7896  164.8433 C.2     1  UNL1        0.2525
      8 O         138.0783  139.2497  165.3237 O.2     1  UNL1       -0.2698
      9 N         139.4501  140.6276  163.6005 N.am    1  UNL1       -0.2660
     10 C         140.6850  141.2331  163.0017 C.3     1  UNL1        0.1236
     11 C         140.2808  141.9870  161.7696 C.ar    1  UNL1        0.0338
     12 C         140.7942  142.8272  160.6379 C.ar    1  UNL1        0.0990
     13 N         139.6268  143.2069  159.7758 N.ar    1  UNL1       -0.2286
     14 N         138.3920  142.6014  160.3747 N.ar    1  UNL1       -0.1680
     15 C         138.7962  141.8475  161.6069 C.ar    1  UNL1        0.0981
     16 C         138.2828  141.0073  162.7385 C.3     1  UNL1        0.1414
     17 C         139.6843  144.0450  158.5332 C.ar    1  UNL1        0.0855
     18 C         140.3765  145.3755  158.5571 C.ar    1  UNL1        0.0398
     19 C         140.4339  146.2136  157.3144 C.ar    1  UNL1        0.1000
     20 N         139.7991  145.7211  156.0477 N.ar    1  UNL1       -0.2480
     21 C         139.1069  144.3905  156.0237 C.ar    1  UNL1        0.0609
     22 C         138.4721  143.8981  154.7570 C.3     1  UNL1        0.0521
     23 C         139.0495  143.5525  157.2664 C.ar    1  UNL1        0.0339
     24 S         142.6610  140.8757  168.7341 S.O2    1  UNL1        0.0087
     25 O         142.3350  142.1160  167.9560 O.2     1  UNL1       -0.1686
     26 O         142.9869  139.6354  169.5122 O.2     1  UNL1       -0.1686
     27 C         144.2731  142.5671  169.8700 C.3     1  UNL1        0.0276
     28 C         143.0381  141.7171  169.9173 C.3     1  UNL1        0.1560
     29 O         141.1524  137.5104  164.0014 O.3     1  UNL1       -0.4702
     30 C         141.6191  137.8945  162.6287 C.3     1  UNL1        0.2599
     31 C         143.0716  138.1762  162.3819 C.3     1  UNL1        0.0566
     32 C         140.6335  137.9969  161.5026 C.3     1  UNL1        0.4340
     33 F         139.6479  138.0994  160.3765 F       1  UNL1       -0.1664
     34 F         139.5428  137.5170  162.4136 F       1  UNL1       -0.1664
     35 F         141.7242  138.4768  160.5916 F       1  UNL1       -0.1664
@<TRIPOS>BOND
     1    27    28    1
     2    28    24    1
     3    24    25    2
     4    24    26    2
     5    24     1    1
     6     1     2   ar
     7     2     3   ar
     8     3     4   ar
     9     4    29    1
    10    29    30    1
    11    30    31    1
    12    30    32    1
    13    32    33    1
    14    32    34    1
    15    32    35    1
    16     4     5   ar
    17     5     7    1
    18     7     8    2
    19     7     9   am
    20     9    10    1
    21    10    11    1
    22    11    12   ar
    23    12    13   ar
    24    13    17    1
    25    17    18   ar
    26    18    19   ar
    27    19    20   ar
    28    20    21   ar
    29    21    22    1
    30    21    23   ar
    31    13    14   ar
    32    14    15   ar
    33    15    16    1
    34     5     6   ar
    35     6     1   ar
    36    16     9    1
    37    15    11   ar
    38    23    17   ar
@<TRIPOS>MOLECULE
*****
 35 38 0 0 0
SMALL
GASTEIGER

@<TRIPOS>ATOM
      1 C         141.3821  140.9162  167.3587 C.ar    1  UNL1        0.1060
      2 C         140.1763  141.7573  167.0614 C.ar    1  UNL1        0.0215
      3 C         140.0597  142.4614  165.7420 C.ar    1  UNL1        0.0384
      4 C         141.1492  142.3244  164.7200 C.ar    1  UNL1        0.1432
      5 C         142.3550  141.4833  165.0174 C.ar    1  UNL1        0.0888
      6 C         142.4715  140.7792  166.3368 C.ar    1  UNL1        0.0259
      7 C         143.4444  141.3463  163.9953 C.2     1  UNL1        0.2525
      8 O         144.7777  141.9924  164.2292 O.2     1  UNL1       -0.2698
      9 N         143.2004  140.5631  162.7395 N.am    1  UNL1       -0.2660
     10 C         141.9254  139.8650  162.3695 C.3     1  UNL1        0.1236
     11 C         142.1256  139.2110  161.0345 C.ar    1  UNL1        0.0338
     12 C         141.4613  138.3754  159.9807 C.ar    1  UNL1        0.0990
     13 N         142.4495  138.1529  158.8743 N.ar    1  UNL1       -0.2286
     14 N         143.7246  138.8511  159.2444 N.ar    1  UNL1       -0.1680
     15 C         143.5244  139.5050  160.5794 C.ar    1  UNL1        0.0981
     16 C         144.1886  140.3407  161.6332 C.3     1  UNL1        0.1414
     17 C         142.2056  137.3698  157.6186 C.ar    1  UNL1        0.0855
     18 C         141.1934  137.8489  156.6206 C.ar    1  UNL1        0.0398
     19 C         140.9494  137.0657  155.3647 C.ar    1  UNL1        0.1000
     20 N         141.7176  135.8035  155.1068 N.ar    1  UNL1       -0.2480
     21 C         142.7298  135.3243  156.1048 C.ar    1  UNL1        0.0609
     22 C         143.4981  134.0620  155.8469 C.3     1  UNL1        0.0521
     23 C         142.9738  136.1074  157.3606 C.ar    1  UNL1        0.0339
     24 S         141.4987  140.2121  168.6781 S.O2    1  UNL1        0.0087
     25 O         140.0156  139.9878  168.6894 O.2     1  UNL1       -0.1686
     26 O         142.9818  140.4364  168.6668 O.2     1  UNL1       -0.1686
     27 C         142.6973  138.4916  170.2121 C.3     1  UNL1        0.0276
     28 C         141.6152  139.5080  169.9974 C.3     1  UNL1        0.1560
     29 O         141.0326  143.0285  163.4007 O.3     1  UNL1       -0.4702
     30 C         141.2422  144.5116  163.3210 C.3     1  UNL1        0.2599
     31 C         142.4924  145.1235  163.8800 C.3     1  UNL1        0.0566
     32 C         140.2016  145.3829  162.6823 C.3     1  UNL1        0.4340
     33 F         139.1610  146.2543  162.0435 F       1  UNL1       -0.1664
     34 F         139.3036  145.1784  163.8662 F       1  UNL1       -0.1664
     35 F         141.0996  145.5875  161.4984 F       1  UNL1       -0.1664
@<TRIPOS>BOND
     1    27    28    1
     2    28    24    1
     3    24    25    2
     4    24    26    2
     5    24     1    1
     6     1     2   ar
     7     2     3   ar
     8     3     4   ar
     9     4    29    1
    10    29    30    1
    11    30    31    1
    12    30    32    1
    13    32    33    1
    14    32    34    1
    15    32    35    1
    16     4     5   ar
    17     5     7    1
    18     7     8    2
    19     7     9   am
    20     9    10    1
    21    10    11    1
    22    11    12   ar
    23    12    13   ar
    24    13    17    1
    25    17    18   ar
    26    18    19   ar
    27    19    20   ar
    28    20    21   ar
    29    21    22    1
    30    21    23   ar
    31    13    14   ar
    32    14    15   ar
    33    15    16    1
    34     5     6   ar
    35     6     1   ar
    36    16     9    1
    37    15    11   ar
    38    23    17   ar
@<TRIPOS>MOLECULE
*****
 35 38 0 0 0
SMALL
GASTEIGER

@<TRIPOS>ATOM
      1 C         140.9439  140.3570  168.0114 C.ar    1  UNL1        0.1060
      2 C         142.4163  140.0720  167.9853 C.ar    1  UNL1        0.0215
      3 C         143.0139  139.3172  166.8349 C.ar    1  UNL1        0.0384
      4 C         142.1388  138.8475  165.7108 C.ar    1  UNL1        0.1432
      5 C         140.6664  139.1325  165.7369 C.ar    1  UNL1        0.0888
      6 C         140.0689  139.8873  166.8873 C.ar    1  UNL1        0.0259
      7 C         139.7915  138.6627  164.6127 C.2     1  UNL1        0.2525
      8 O         139.0644  137.3554  164.7242 O.2     1  UNL1       -0.2698
      9 N         139.6436  139.5002  163.3771 N.am    1  UNL1       -0.2660
     10 C         140.3049  140.8225  163.1239 C.3     1  UNL1        0.1236
     11 C         139.8785  141.3019  161.7681 C.ar    1  UNL1        0.0338
     12 C         140.0236  142.4155  160.7736 C.ar    1  UNL1        0.0990
     13 N         139.1884  142.0777  159.5742 N.ar    1  UNL1       -0.2286
     14 N         138.5271  140.7553  159.8275 N.ar    1  UNL1       -0.1680
     15 C         138.9536  140.2759  161.1833 C.ar    1  UNL1        0.0981
     16 C         138.8084  139.1624  162.1778 C.3     1  UNL1        0.1414
     17 C         139.0405  142.9151  158.3387 C.ar    1  UNL1        0.0855
     18 C         137.9931  142.5723  157.3212 C.ar    1  UNL1        0.0398
     19 C         137.8451  143.4098  156.0855 C.ar    1  UNL1        0.1000
     20 N         138.7447  144.5901  155.8674 N.ar    1  UNL1       -0.2480
     21 C         139.7923  144.9329  156.8849 C.ar    1  UNL1        0.0609
     22 C         140.6919  146.1133  156.6667 C.3     1  UNL1        0.0521
     23 C         139.9401  144.0955  158.1205 C.ar    1  UNL1        0.0339
     24 S         140.3464  141.1118  169.1618 S.O2    1  UNL1        0.0087
     25 O         139.7051  139.8494  169.6570 O.2     1  UNL1       -0.1686
     26 O         140.9876  142.3742  168.6666 O.2     1  UNL1       -0.1686
     27 C         139.9762  143.3438  170.4389 C.3     1  UNL1        0.0276
     28 C         139.7489  141.8666  170.3121 C.3     1  UNL1        0.1560
     29 O         142.7363  138.0927  164.5604 O.3     1  UNL1       -0.4702
     30 C         143.4710  138.8300  163.4803 C.3     1  UNL1        0.2599
     31 C         143.2355  138.4813  162.0405 C.3     1  UNL1        0.0566
     32 C         144.4412  139.9159  163.8398 C.3     1  UNL1        0.4340
     33 F         145.4115  141.0019  164.1994 F       1  UNL1       -0.1664
     34 F         143.5354  140.9333  163.2117 F       1  UNL1       -0.1664
     35 F         145.3471  138.8987  164.4679 F       1  UNL1       -0.1664
@<TRIPOS>BOND
     1    27    28    1
     2    28    24    1
     3    24    25    2
     4    24    26    2
     5    24     1    1
     6     1     2   ar
     7     2     3   ar
     8     3     4   ar
     9     4    29    1
    10    29    30    1
    11    30    31    1
    12    30    32    1
    13    32    33    1
    14    32    34    1
    15    32    35    1
    16     4     5   ar
    17     5     7    1
    18     7     8    2
    19     7     9   am
    20     9    10    1
    21    10    11    1
    22    11    12   ar
    23    12    13   ar
    24    13    17    1
    25    17    18   ar
    26    18    19   ar
    27    19    20   ar
    28    20    21   ar
    29    21    22    1
    30    21    23   ar
    31    13    14   ar
    32    14    15   ar
    33    15    16    1
    34     5     6   ar
    35     6     1   ar
    36    16     9    1
    37    15    11   ar
    38    23    17   ar
@<TRIPOS>MOLECULE
*****
 35 38 0 0 0
SMALL
GASTEIGER

@<TRIPOS>ATOM
      1 C         141.7480  140.9326  166.2369 C.ar    1  UNL1        0.1060
      2 C         142.2849  142.3212  166.0542 C.ar    1  UNL1        0.0215
      3 C         141.8245  143.1571  164.8969 C.ar    1  UNL1        0.0384
      4 C         140.8272  142.6042  163.9223 C.ar    1  UNL1        0.1432
      5 C         140.2903  141.2155  164.1050 C.ar    1  UNL1        0.0888
      6 C         140.7508  140.3797  165.2624 C.ar    1  UNL1        0.0259
      7 C         139.2931  140.6628  163.1304 C.2     1  UNL1        0.2525
      8 O         137.8244  140.7835  163.4104 O.2     1  UNL1       -0.2698
      9 N         139.7644  139.9893  161.8757 N.am    1  UNL1       -0.2660
     10 C         141.1933  139.7952  161.4627 C.3     1  UNL1        0.1236
     11 C         141.2016  139.0776  160.1455 C.ar    1  UNL1        0.0338
     12 C         142.0899  138.5141  159.0761 C.ar    1  UNL1        0.0990
     13 N         141.2152  137.9164  158.0142 N.ar    1  UNL1       -0.2286
     14 N         139.7862  138.1105  158.4273 N.ar    1  UNL1       -0.1680
     15 C         139.7779  138.8281  159.7445 C.ar    1  UNL1        0.0981
     16 C         138.8897  139.3916  160.8138 C.3     1  UNL1        0.1414
     17 C         141.6865  137.2429  156.7596 C.ar    1  UNL1        0.0855
     18 C         143.1007  136.7536  156.6569 C.ar    1  UNL1        0.0398
     19 C         143.5721  136.0801  155.4022 C.ar    1  UNL1        0.1000
     20 N         142.6293  135.8959  154.2502 N.ar    1  UNL1       -0.2480
     21 C         141.2150  136.3852  154.3529 C.ar    1  UNL1        0.0609
     22 C         140.2721  136.2010  153.2009 C.3     1  UNL1        0.0521
     23 C         140.7436  137.0587  155.6075 C.ar    1  UNL1        0.0339
     24 S         142.2084  140.0967  167.3942 S.O2    1  UNL1        0.0087
     25 O         141.2932  140.8572  168.3075 O.2     1  UNL1       -0.1686
     26 O         143.1236  139.3362  166.4809 O.2     1  UNL1       -0.1686
     27 C         142.0093  139.4062  169.8910 C.3     1  UNL1        0.0276
     28 C         142.6688  139.2608  168.5516 C.3     1  UNL1        0.1560
     29 O         140.3668  143.4400  162.7649 O.3     1  UNL1       -0.4702
     30 C         139.4483  144.6028  162.9980 C.3     1  UNL1        0.2599
     31 C         139.6147  145.8618  162.1997 C.3     1  UNL1        0.0566
     32 C         138.3635  144.5067  164.0294 C.3     1  UNL1        0.4340
     33 F         137.2786  144.4106  165.0609 F       1  UNL1       -0.1664
     34 F         137.4846  143.8015  163.0393 F       1  UNL1       -0.1664
     35 F         139.2423  145.2118  165.0195 F       1  UNL1       -0.1664
@<TRIPOS>BOND
     1    27    28    1
     2    28    24    1
     3    24    25    2
     4    24    26    2
     5    24     1    1
     6     1     2   ar
     7     2     3   ar
     8     3     4   ar
     9     4    29    1
    10    29    30    1
    11    30    31    1
    12    30    32    1
    13    32    33    1
    14    32    34    1
    15    32    35    1
    16     4     5   ar
    17     5     7    1
    18     7     8    2
    19     7     9   am
    20     9    10    1
    21    10    11    1
    22    11    12   ar
    23    12    13   ar
    24    13    17    1
    25    17    18   ar
    26    18    19   ar
    27    19    20   ar
    28    20    21   ar
    29    21    22    1
    30    21    23   ar
    31    13    14   ar
    32    14    15   ar
    33    15    16    1
    34     5     6   ar
    35     6     1   ar
    36    16     9    1
    37    15    11   ar
    38    23    17   ar
@<TRIPOS>MOLECULE
*****
 35 38 0 0 0
SMALL
GASTEIGER

@<TRIPOS>ATOM
      1 C         139.9458  141.6622  166.4975 C.ar    1  UNL1        0.1060
      2 C         140.2028  143.1386  166.5602 C.ar    1  UNL1        0.0215
      3 C         139.8259  144.0153  165.4028 C.ar    1  UNL1        0.0384
      4 C         139.1920  143.4153  164.1828 C.ar    1  UNL1        0.1432
      5 C         138.9351  141.9388  164.1202 C.ar    1  UNL1        0.0888
      6 C         139.3120  141.0622  165.2776 C.ar    1  UNL1        0.0259
      7 C         138.3012  141.3390  162.9002 C.2     1  UNL1        0.2525
      8 O         136.8110  141.3779  162.7332 O.2     1  UNL1       -0.2698
      9 N         139.1575  140.7002  161.8472 N.am    1  UNL1       -0.2660
     10 C         140.6529  140.5868  161.8762 C.3     1  UNL1        0.1236
     11 C         141.0883  139.8792  160.6272 C.ar    1  UNL1        0.0338
     12 C         142.2816  139.3717  159.8733 C.ar    1  UNL1        0.0990
     13 N         141.7928  138.7343  158.6064 N.ar    1  UNL1       -0.2286
     14 N         140.2973  138.8477  158.5775 N.ar    1  UNL1       -0.1680
     15 C         139.8619  139.5553  159.8264 C.ar    1  UNL1        0.0981
     16 C         138.6686  140.0628  160.5804 C.3     1  UNL1        0.1414
     17 C         142.6490  138.0955  157.5535 C.ar    1  UNL1        0.0855
     18 C         142.7539  136.6012  157.4769 C.ar    1  UNL1        0.0398
     19 C         143.6102  135.9623  156.4239 C.ar    1  UNL1        0.1000
     20 N         144.3616  136.8179  155.4475 N.ar    1  UNL1       -0.2480
     21 C         144.2567  138.3124  155.5241 C.ar    1  UNL1        0.0609
     22 C         145.0081  139.1679  154.5476 C.3     1  UNL1        0.0521
     23 C         143.4004  138.9511  156.5770 C.ar    1  UNL1        0.0339
     24 S         140.3227  140.7855  167.6549 S.O2    1  UNL1        0.0087
     25 O         141.2627  141.8441  168.1506 O.2     1  UNL1       -0.1686
     26 O         139.3827  139.7269  167.1591 O.2     1  UNL1       -0.1686
     27 C         140.1856  140.2193  170.1868 C.3     1  UNL1        0.0276
     28 C         140.6996  139.9089  168.8122 C.3     1  UNL1        0.1560
     29 O         138.8152  144.2920  163.0254 O.3     1  UNL1       -0.4702
     30 C         139.8809  145.0006  162.2431 C.3     1  UNL1        0.2599
     31 C         139.6465  146.3983  161.7519 C.3     1  UNL1        0.0566
     32 C         141.1810  144.3115  161.9519 C.3     1  UNL1        0.4340
     33 F         142.4812  143.6223  161.6607 F       1  UNL1       -0.1664
     34 F         140.5143  143.5089  160.8742 F       1  UNL1       -0.1664
     35 F         141.8477  145.1139  163.0295 F       1  UNL1       -0.1664
@<TRIPOS>BOND
     1    27    28    1
     2    28    24    1
     3    24    25    2
     4    24    26    2
     5    24     1    1
     6     1     2   ar
     7     2     3   ar
     8     3     4   ar
     9     4    29    1
    10    29    30    1
    11    30    31    1
    12    30    32    1
    13    32    33    1
    14    32    34    1
    15    32    35    1
    16     4     5   ar
    17     5     7    1
    18     7     8    2
    19     7     9   am
    20     9    10    1
    21    10    11    1
    22    11    12   ar
    23    12    13   ar
    24    13    17    1
    25    17    18   ar
    26    18    19   ar
    27    19    20   ar
    28    20    21   ar
    29    21    22    1
    30    21    23   ar
    31    13    14   ar
    32    14    15   ar
    33    15    16    1
    34     5     6   ar
    35     6     1   ar
    36    16     9    1
    37    15    11   ar
    38    23    17   ar
