@<TRIPOS>MOLECULE
*****
 34 37 0 0 0
SMALL
GASTEIGER

@<TRIPOS>ATOM
      1 C         140.9354  144.4671  160.5104 C.3     1  UNL1        0.1105
      2 C         140.8026  144.9478  159.0957 C.3     1  UNL1        0.0829
      3 N         141.8080  144.5296  158.0640 N.3     1  UNL1       -0.2734
      4 C         142.9461  143.6307  158.4470 C.3     1  UNL1        0.0738
      5 C         143.0788  143.1500  159.8616 C.3     1  UNL1        0.0374
      6 C         142.0735  143.5682  160.8933 C.3     1  UNL1        0.0832
      7 C         141.6752  145.0103  156.6493 C.3     1  UNL1        0.0575
      8 C         140.6785  146.0789  156.3108 C.3     1  UNL1        0.0160
      9 C         140.5457  146.5597  154.8962 C.3     1  UNL1        0.0014
     10 C         141.4096  145.9717  153.8200 C.3     1  UNL1        0.0001
     11 C         142.4063  144.9031  154.1585 C.3     1  UNL1        0.0014
     12 C         142.5391  144.4224  155.5732 C.3     1  UNL1        0.0160
     13 C         137.8204  144.3679  162.9674 C.3     1  UNL1        0.1149
     14 N         138.8258  143.9497  161.9357 N.am    1  UNL1       -0.2760
     15 C         138.7268  142.5957  161.2977 C.3     1  UNL1        0.1149
     16 C         139.9300  144.8853  161.5421 C.2     1  UNL1        0.2283
     17 O         140.0290  146.2392  162.1801 O.2     1  UNL1       -0.2748
     18 N         142.2063  143.0875  162.3081 N.am    1  UNL1       -0.3006
     19 C         143.0424  143.8578  163.2865 C.2     1  UNL1        0.2669
     20 O         143.7458  145.1088  162.8504 O.2     1  UNL1       -0.2684
     21 H         141.7446  142.2664  162.5943 H       1  UNL1        0.1497
     22 C         143.1752  143.3771  164.7013 C.ar    1  UNL1        0.1761
     23 C         142.1299  142.6383  165.4832 C.ar    1  UNL1        0.0673
     24 C         142.6853  142.3554  166.8476 C.ar    1  UNL1        0.1792
     25 O         144.0740  142.9193  166.9088 O.2     1  UNL1       -0.3532
     26 N         144.3767  143.5508  165.5823 N.ar    1  UNL1       -0.0723
     27 C         141.9766  141.6351  167.9560 C.ar    1  UNL1        0.0648
     28 C         142.5240  140.3405  168.4797 C.ar    1  UNL1        0.0077
     29 C         141.8153  139.6200  169.5882 C.ar    1  UNL1        0.0299
     30 C         140.5590  140.1943  170.1730 C.ar    1  UNL1        0.1424
     31 F         139.8502  139.4740  171.2815 F       1  UNL1       -0.2041
     32 C         140.0115  141.4889  169.6493 C.ar    1  UNL1        0.0593
     33 C         140.7203  142.2092  168.5409 C.ar    1  UNL1        0.1453
     34 F         140.1728  143.5038  168.0172 F       1  UNL1       -0.2040
@<TRIPOS>BOND
     1    13    14    1
     2    14    15    1
     3    14    16   am
     4    16    17    2
     5     1    16    1
     6     1     2    1
     7     2     3    1
     8     3     7    1
     9     7     8    1
    10     8     9    1
    11     9    10    1
    12    10    11    1
    13    11    12    1
    14     3     4    1
    15     4     5    1
    16     5     6    1
    17     6    18    1
    18    18    19   am
    19    19    20    2
    20    19    22    1
    21    22    23   ar
    22    23    24   ar
    23    24    27    1
    24    27    28   ar
    25    28    29   ar
    26    29    30   ar
    27    30    31    1
    28    30    32   ar
    29    32    33   ar
    30    33    34    1
    31    24    25   ar
    32    25    26   ar
    33     6     1    1
    34    26    22   ar
    35    12     7    1
    36    33    27   ar
    37    18    21    1
@<TRIPOS>MOLECULE
*****
 34 37 0 0 0
SMALL
GASTEIGER

@<TRIPOS>ATOM
      1 C         141.0151  140.6468  164.0035 C.3     1  UNL1        0.1105
      2 C         140.9482  141.0819  165.4374 C.3     1  UNL1        0.0829
      3 N         142.0893  141.8434  166.0441 N.3     1  UNL1       -0.2734
      4 C         143.2973  142.1698  165.2169 C.3     1  UNL1        0.0738
      5 C         143.3642  141.7346  163.7830 C.3     1  UNL1        0.0374
      6 C         142.2231  140.9731  163.1763 C.3     1  UNL1        0.0832
      7 C         142.0224  142.2786  167.4781 C.3     1  UNL1        0.0575
      8 C         140.7318  142.7884  168.0477 C.3     1  UNL1        0.0160
      9 C         140.6648  143.2235  169.4816 C.3     1  UNL1        0.0014
     10 C         141.8885  143.1488  170.3460 C.3     1  UNL1        0.0001
     11 C         143.1791  142.6389  169.7765 C.3     1  UNL1        0.0014
     12 C         143.2460  142.2038  168.3425 C.3     1  UNL1        0.0160
     13 C         138.6947  137.6274  162.8859 C.3     1  UNL1        0.1149
     14 N         139.8358  138.3889  163.4926 N.am    1  UNL1       -0.2760
     15 C         140.9387  137.6539  164.1952 C.3     1  UNL1        0.1149
     16 C         139.8741  139.8853  163.3968 C.2     1  UNL1        0.2283
     17 O         138.7712  140.6202  162.6942 O.2     1  UNL1       -0.2748
     18 N         142.2900  140.5380  161.7423 N.am    1  UNL1       -0.3006
     19 C         143.0878  139.3258  161.3629 C.2     1  UNL1        0.2669
     20 O         143.8187  138.5487  162.4173 O.2     1  UNL1       -0.2684
     21 H         141.8103  141.0480  161.0502 H       1  UNL1        0.1497
     22 C         143.1548  138.8907  159.9289 C.ar    1  UNL1        0.1761
     23 C         142.4980  137.6752  159.3447 C.ar    1  UNL1        0.0673
     24 C         142.8275  137.6280  157.8821 C.ar    1  UNL1        0.1792
     25 O         143.6881  138.8143  157.5623 O.2     1  UNL1       -0.3532
     26 N         143.8903  139.5947  158.8274 N.ar    1  UNL1       -0.0723
     27 C         142.3759  136.5788  156.9101 C.ar    1  UNL1        0.0648
     28 C         143.0799  135.2554  156.8541 C.ar    1  UNL1        0.0077
     29 C         142.6284  134.2061  155.8820 C.ar    1  UNL1        0.0299
     30 C         141.4726  134.4801  154.9658 C.ar    1  UNL1        0.1424
     31 F         141.0210  133.4308  153.9937 F       1  UNL1       -0.2041
     32 C         140.7686  135.8035  155.0218 C.ar    1  UNL1        0.0593
     33 C         141.2203  136.8527  155.9939 C.ar    1  UNL1        0.1453
     34 F         140.5163  138.1761  156.0498 F       1  UNL1       -0.2040
@<TRIPOS>BOND
     1    13    14    1
     2    14    15    1
     3    14    16   am
     4    16    17    2
     5     1    16    1
     6     1     2    1
     7     2     3    1
     8     3     7    1
     9     7     8    1
    10     8     9    1
    11     9    10    1
    12    10    11    1
    13    11    12    1
    14     3     4    1
    15     4     5    1
    16     5     6    1
    17     6    18    1
    18    18    19   am
    19    19    20    2
    20    19    22    1
    21    22    23   ar
    22    23    24   ar
    23    24    27    1
    24    27    28   ar
    25    28    29   ar
    26    29    30   ar
    27    30    31    1
    28    30    32   ar
    29    32    33   ar
    30    33    34    1
    31    24    25   ar
    32    25    26   ar
    33     6     1    1
    34    26    22   ar
    35    12     7    1
    36    33    27   ar
    37    18    21    1
@<TRIPOS>MOLECULE
*****
 34 37 0 0 0
SMALL
GASTEIGER

@<TRIPOS>ATOM
      1 C         140.0445  140.5252  163.6770 C.3     1  UNL1        0.1105
      2 C         139.6778  140.7877  165.1076 C.3     1  UNL1        0.0829
      3 N         140.7388  141.1737  166.0951 N.3     1  UNL1       -0.2734
      4 C         142.1665  141.2972  165.6520 C.3     1  UNL1        0.0738
      5 C         142.5332  141.0348  164.2215 C.3     1  UNL1        0.0374
      6 C         141.4722  140.6488  163.2339 C.3     1  UNL1        0.0832
      7 C         140.3721  141.4361  167.5258 C.3     1  UNL1        0.0575
      8 C         139.7016  140.3669  168.3364 C.3     1  UNL1        0.0160
      9 C         139.3348  140.6293  169.7670 C.3     1  UNL1        0.0014
     10 C         139.6386  141.9610  170.3870 C.3     1  UNL1        0.0001
     11 C         140.3091  143.0302  169.5764 C.3     1  UNL1        0.0014
     12 C         140.6758  142.7678  168.1457 C.3     1  UNL1        0.0160
     13 C         137.5793  138.3076  161.4963 C.3     1  UNL1        0.1149
     14 N         138.6404  138.6936  162.4839 N.am    1  UNL1       -0.2760
     15 C         139.3584  137.6338  163.2659 C.3     1  UNL1        0.1149
     16 C         138.9834  140.1392  162.6894 C.2     1  UNL1        0.2283
     17 O         138.2654  141.1989  161.9075 O.2     1  UNL1       -0.2748
     18 N         141.8389  140.3863  161.8033 N.am    1  UNL1       -0.3006
     19 C         142.4783  139.0849  161.4196 C.2     1  UNL1        0.2669
     20 O         142.7511  138.0458  162.4665 O.2     1  UNL1       -0.2684
     21 H         141.6599  141.0683  161.1162 H       1  UNL1        0.1497
     22 C         142.8451  138.8224  159.9889 C.ar    1  UNL1        0.1761
     23 C         142.4044  137.6476  159.1670 C.ar    1  UNL1        0.0673
     24 C         143.0038  137.7878  157.7992 C.ar    1  UNL1        0.1792
     25 O         143.8151  139.0494  157.7757 O.2     1  UNL1       -0.3532
     26 N         143.7170  139.6888  159.1291 N.ar    1  UNL1       -0.0723
     27 C         142.8237  136.8341  156.6556 C.ar    1  UNL1        0.0648
     28 C         142.4472  137.3521  155.2992 C.ar    1  UNL1        0.0077
     29 C         142.2670  136.3983  154.1555 C.ar    1  UNL1        0.0299
     30 C         142.4634  134.9265  154.3684 C.ar    1  UNL1        0.1424
     31 F         142.2833  133.9727  153.2248 F       1  UNL1       -0.2041
     32 C         142.8400  134.4085  155.7248 C.ar    1  UNL1        0.0593
     33 C         143.0201  135.3623  156.8684 C.ar    1  UNL1        0.1453
     34 F         143.3966  134.8443  158.2248 F       1  UNL1       -0.2040
@<TRIPOS>BOND
     1    13    14    1
     2    14    15    1
     3    14    16   am
     4    16    17    2
     5     1    16    1
     6     1     2    1
     7     2     3    1
     8     3     7    1
     9     7     8    1
    10     8     9    1
    11     9    10    1
    12    10    11    1
    13    11    12    1
    14     3     4    1
    15     4     5    1
    16     5     6    1
    17     6    18    1
    18    18    19   am
    19    19    20    2
    20    19    22    1
    21    22    23   ar
    22    23    24   ar
    23    24    27    1
    24    27    28   ar
    25    28    29   ar
    26    29    30   ar
    27    30    31    1
    28    30    32   ar
    29    32    33   ar
    30    33    34    1
    31    24    25   ar
    32    25    26   ar
    33     6     1    1
    34    26    22   ar
    35    12     7    1
    36    33    27   ar
    37    18    21    1
@<TRIPOS>MOLECULE
*****
 34 37 0 0 0
SMALL
GASTEIGER

@<TRIPOS>ATOM
      1 C         139.4366  143.1702  164.0153 C.3     1  UNL1        0.1105
      2 C         140.1014  143.4153  165.3374 C.3     1  UNL1        0.0829
      3 N         140.4830  142.2573  166.2111 N.3     1  UNL1       -0.2734
      4 C         140.1997  140.8542  165.7628 C.3     1  UNL1        0.0738
      5 C         139.5349  140.6091  164.4408 C.3     1  UNL1        0.0374
      6 C         139.1534  141.7671  163.5670 C.3     1  UNL1        0.0832
      7 C         141.1479  142.5025  167.5333 C.3     1  UNL1        0.0575
      8 C         140.3934  143.1815  168.6377 C.3     1  UNL1        0.0160
      9 C         141.0581  143.4267  169.9597 C.3     1  UNL1        0.0014
     10 C         142.4775  142.9929  170.1774 C.3     1  UNL1        0.0001
     11 C         143.2320  142.3139  169.0730 C.3     1  UNL1        0.0014
     12 C         142.5671  142.0687  167.7509 C.3     1  UNL1        0.0160
     13 C         139.7382  146.3555  161.6674 C.3     1  UNL1        0.1149
     14 N         140.1198  145.1975  162.5412 N.am    1  UNL1       -0.2760
     15 C         141.5662  144.9089  162.8146 C.3     1  UNL1        0.1149
     16 C         139.0550  144.3282  163.1415 C.2     1  UNL1        0.2283
     17 O         137.6087  144.6168  162.8681 O.2     1  UNL1       -0.2748
     18 N         138.4885  141.5219  162.2449 N.am    1  UNL1       -0.3006
     19 C         139.3090  141.4744  160.9902 C.2     1  UNL1        0.2669
     20 O         140.7944  141.6721  161.0574 O.2     1  UNL1       -0.2684
     21 H         137.5136  141.3922  162.2007 H       1  UNL1        0.1497
     22 C         138.6442  141.2292  159.6680 C.ar    1  UNL1        0.1761
     23 C         138.3682  142.2612  158.6151 C.ar    1  UNL1        0.0673
     24 C         137.6921  141.5788  157.4631 C.ar    1  UNL1        0.1792
     25 O         137.5501  140.1249  157.8041 O.2     1  UNL1       -0.3532
     26 N         138.1386  139.9089  159.1669 N.ar    1  UNL1       -0.0723
     27 C         137.2376  142.2349  156.1932 C.ar    1  UNL1        0.0648
     28 C         136.1605  141.5998  155.3646 C.ar    1  UNL1        0.0077
     29 C         135.7060  142.2559  154.0946 C.ar    1  UNL1        0.0299
     30 C         136.3287  143.5473  153.6531 C.ar    1  UNL1        0.1424
     31 F         135.8743  144.2034  152.3831 F       1  UNL1       -0.2041
     32 C         137.4058  144.1823  154.4816 C.ar    1  UNL1        0.0593
     33 C         137.8603  143.5262  155.7516 C.ar    1  UNL1        0.1453
     34 F         138.9374  144.1613  156.5801 F       1  UNL1       -0.2040
@<TRIPOS>BOND
     1    13    14    1
     2    14    15    1
     3    14    16   am
     4    16    17    2
     5     1    16    1
     6     1     2    1
     7     2     3    1
     8     3     7    1
     9     7     8    1
    10     8     9    1
    11     9    10    1
    12    10    11    1
    13    11    12    1
    14     3     4    1
    15     4     5    1
    16     5     6    1
    17     6    18    1
    18    18    19   am
    19    19    20    2
    20    19    22    1
    21    22    23   ar
    22    23    24   ar
    23    24    27    1
    24    27    28   ar
    25    28    29   ar
    26    29    30   ar
    27    30    31    1
    28    30    32   ar
    29    32    33   ar
    30    33    34    1
    31    24    25   ar
    32    25    26   ar
    33     6     1    1
    34    26    22   ar
    35    12     7    1
    36    33    27   ar
    37    18    21    1
@<TRIPOS>MOLECULE
*****
 34 37 0 0 0
SMALL
GASTEIGER

@<TRIPOS>ATOM
      1 C         141.4614  141.9167  163.4762 C.3     1  UNL1        0.1105
      2 C         141.4417  142.4660  164.8719 C.3     1  UNL1        0.0829
      3 N         141.8883  141.6111  166.0207 N.3     1  UNL1       -0.2734
      4 C         142.3545  140.2069  165.7739 C.3     1  UNL1        0.0738
      5 C         142.3741  139.6577  164.3782 C.3     1  UNL1        0.0374
      6 C         141.9276  140.5126  163.2294 C.3     1  UNL1        0.0832
      7 C         141.8686  142.1604  167.4164 C.3     1  UNL1        0.0575
      8 C         143.1022  142.0916  168.2669 C.3     1  UNL1        0.0160
      9 C         143.0826  142.6409  169.6625 C.3     1  UNL1        0.0014
     10 C         141.8293  143.2590  170.2077 C.3     1  UNL1        0.0001
     11 C         140.5956  143.3279  169.3572 C.3     1  UNL1        0.0014
     12 C         140.6153  142.7785  167.9615 C.3     1  UNL1        0.0160
     13 C         141.5686  144.4513  160.4243 C.3     1  UNL1        0.1149
     14 N         142.0152  143.5964  161.5731 N.am    1  UNL1       -0.2760
     15 C         143.4621  143.5664  161.9677 C.3     1  UNL1        0.1149
     16 C         141.0149  142.7716  162.3274 C.2     1  UNL1        0.2283
     17 O         139.5680  142.8017  161.9329 O.2     1  UNL1       -0.2748
     18 N         141.9473  139.9632  161.8337 N.am    1  UNL1       -0.3006
     19 C         143.2531  139.7754  161.1199 C.2     1  UNL1        0.2669
     20 O         144.5393  140.1369  161.8018 O.2     1  UNL1       -0.2684
     21 H         141.1031  139.7260  161.3861 H       1  UNL1        0.1497
     22 C         143.2728  139.2261  159.7242 C.ar    1  UNL1        0.1761
     23 C         142.6111  137.9605  159.2654 C.ar    1  UNL1        0.0673
     24 C         142.8870  137.7982  157.8000 C.ar    1  UNL1        0.1792
     25 O         143.7192  138.9635  157.3531 O.2     1  UNL1       -0.3532
     26 N         143.9576  139.8460  158.5424 N.ar    1  UNL1       -0.0723
     27 C         142.4138  136.6689  156.9336 C.ar    1  UNL1        0.0648
     28 C         143.0847  135.3297  157.0143 C.ar    1  UNL1        0.0077
     29 C         142.6116  134.2003  156.1479 C.ar    1  UNL1        0.0299
     30 C         141.4674  134.4102  155.2007 C.ar    1  UNL1        0.1424
     31 F         140.9943  133.2809  154.3342 F       1  UNL1       -0.2041
     32 C         140.7966  135.7494  155.1200 C.ar    1  UNL1        0.0593
     33 C         141.2697  136.8787  155.9864 C.ar    1  UNL1        0.1453
     34 F         140.5989  138.2179  155.9057 F       1  UNL1       -0.2040
@<TRIPOS>BOND
     1    13    14    1
     2    14    15    1
     3    14    16   am
     4    16    17    2
     5     1    16    1
     6     1     2    1
     7     2     3    1
     8     3     7    1
     9     7     8    1
    10     8     9    1
    11     9    10    1
    12    10    11    1
    13    11    12    1
    14     3     4    1
    15     4     5    1
    16     5     6    1
    17     6    18    1
    18    18    19   am
    19    19    20    2
    20    19    22    1
    21    22    23   ar
    22    23    24   ar
    23    24    27    1
    24    27    28   ar
    25    28    29   ar
    26    29    30   ar
    27    30    31    1
    28    30    32   ar
    29    32    33   ar
    30    33    34    1
    31    24    25   ar
    32    25    26   ar
    33     6     1    1
    34    26    22   ar
    35    12     7    1
    36    33    27   ar
    37    18    21    1
@<TRIPOS>MOLECULE
*****
 34 37 0 0 0
SMALL
GASTEIGER

@<TRIPOS>ATOM
      1 C         140.4647  141.0077  163.5676 C.3     1  UNL1        0.1105
      2 C         140.1737  141.4852  164.9595 C.3     1  UNL1        0.0829
      3 N         140.6014  140.6633  166.1391 N.3     1  UNL1       -0.2734
      4 C         141.3201  139.3639  165.9269 C.3     1  UNL1        0.0738
      5 C         141.6111  138.8864  164.5351 C.3     1  UNL1        0.0374
      6 C         141.1833  139.7083  163.3554 C.3     1  UNL1        0.0832
      7 C         140.3105  141.1408  167.5310 C.3     1  UNL1        0.0575
      8 C         140.7329  142.5160  167.9558 C.3     1  UNL1        0.0160
      9 C         140.4419  142.9936  169.3476 C.3     1  UNL1        0.0014
     10 C         139.7285  142.0960  170.3148 C.3     1  UNL1        0.0001
     11 C         139.3061  140.7208  169.8900 C.3     1  UNL1        0.0014
     12 C         139.5971  140.2432  168.4981 C.3     1  UNL1        0.0160
     13 C         138.2616  142.4290  160.5883 C.3     1  UNL1        0.1149
     14 N         138.6894  141.6071  161.7679 N.am    1  UNL1       -0.2760
     15 C         137.7695  140.5627  162.3275 C.3     1  UNL1        0.1149
     16 C         140.0369  141.8296  162.3880 C.2     1  UNL1        0.2283
     17 O         140.9567  142.8739  161.8284 O.2     1  UNL1       -0.2748
     18 N         141.4743  139.2307  161.9635 N.am    1  UNL1       -0.3006
     19 C         142.6847  139.7352  161.2352 C.2     1  UNL1        0.2669
     20 O         143.6041  140.7172  161.8987 O.2     1  UNL1       -0.2684
     21 H         140.8709  138.5862  161.5280 H       1  UNL1        0.1497
     22 C         142.9757  139.2576  159.8433 C.ar    1  UNL1        0.1761
     23 C         142.3014  138.1145  159.1443 C.ar    1  UNL1        0.0673
     24 C         142.9010  137.9898  157.7751 C.ar    1  UNL1        0.1792
     25 O         143.9460  139.0559  157.6278 O.2     1  UNL1       -0.3532
     26 N         143.9921  139.8395  158.9061 N.ar    1  UNL1       -0.0723
     27 C         142.5222  136.9769  156.7357 C.ar    1  UNL1        0.0648
     28 C         143.5817  136.1376  156.0852 C.ar    1  UNL1        0.0077
     29 C         143.2030  135.1246  155.0457 C.ar    1  UNL1        0.0299
     30 C         141.7647  134.9510  154.6567 C.ar    1  UNL1        0.1424
     31 F         141.3859  133.9381  153.6172 F       1  UNL1       -0.2041
     32 C         140.7053  135.7903  155.3072 C.ar    1  UNL1        0.0593
     33 C         141.0840  136.8032  156.3466 C.ar    1  UNL1        0.1453
     34 F         140.0246  137.6425  156.9971 F       1  UNL1       -0.2040
@<TRIPOS>BOND
     1    13    14    1
     2    14    15    1
     3    14    16   am
     4    16    17    2
     5     1    16    1
     6     1     2    1
     7     2     3    1
     8     3     7    1
     9     7     8    1
    10     8     9    1
    11     9    10    1
    12    10    11    1
    13    11    12    1
    14     3     4    1
    15     4     5    1
    16     5     6    1
    17     6    18    1
    18    18    19   am
    19    19    20    2
    20    19    22    1
    21    22    23   ar
    22    23    24   ar
    23    24    27    1
    24    27    28   ar
    25    28    29   ar
    26    29    30   ar
    27    30    31    1
    28    30    32   ar
    29    32    33   ar
    30    33    34    1
    31    24    25   ar
    32    25    26   ar
    33     6     1    1
    34    26    22   ar
    35    12     7    1
    36    33    27   ar
    37    18    21    1
@<TRIPOS>MOLECULE
*****
 34 37 0 0 0
SMALL
GASTEIGER

@<TRIPOS>ATOM
      1 C         141.8902  142.3882  163.7061 C.3     1  UNL1        0.1105
      2 C         142.2311  142.3007  165.1642 C.3     1  UNL1        0.0829
      3 N         141.2327  142.7366  166.1953 N.3     1  UNL1       -0.2734
      4 C         139.8934  143.2598  165.7683 C.3     1  UNL1        0.0738
      5 C         139.5525  143.3473  164.3102 C.3     1  UNL1        0.0374
      6 C         140.5509  142.9114  163.2791 C.3     1  UNL1        0.0832
      7 C         141.5736  142.6491  167.6535 C.3     1  UNL1        0.0575
      8 C         140.5373  142.9776  168.6870 C.3     1  UNL1        0.0160
      9 C         140.8781  142.8901  170.1451 C.3     1  UNL1        0.0014
     10 C         142.2554  142.4742  170.5698 C.3     1  UNL1        0.0001
     11 C         143.2917  142.1458  169.5362 C.3     1  UNL1        0.0014
     12 C         142.9508  142.2332  168.0781 C.3     1  UNL1        0.0160
     13 C         144.9357  142.4752  161.1629 C.3     1  UNL1        0.1149
     14 N         143.9372  142.9110  162.1940 N.am    1  UNL1       -0.2760
     15 C         143.9873  144.3057  162.7441 C.3     1  UNL1        0.1149
     16 C         142.8887  141.9523  162.6750 C.2     1  UNL1        0.2283
     17 O         142.8386  140.5578  162.1249 O.2     1  UNL1       -0.2748
     18 N         140.2100  142.9989  161.8209 N.am    1  UNL1       -0.3006
     19 C         140.3696  144.2990  161.0900 C.2     1  UNL1        0.2669
     20 O         140.8700  145.5117  161.8173 O.2     1  UNL1       -0.2684
     21 H         139.8815  142.2030  161.3436 H       1  UNL1        0.1497
     22 C         140.0286  144.3865  159.6319 C.ar    1  UNL1        0.1761
     23 C         140.4904  145.4504  158.6807 C.ar    1  UNL1        0.0673
     24 C         139.9133  145.1468  157.3299 C.ar    1  UNL1        0.1792
     25 O         139.0947  143.8952  157.4462 O.2     1  UNL1       -0.3532
     26 N         139.1660  143.4252  158.8690 N.ar    1  UNL1       -0.0723
     27 C         140.1186  145.9531  156.0819 C.ar    1  UNL1        0.0648
     28 C         140.9352  145.3951  154.9543 C.ar    1  UNL1        0.0077
     29 C         141.1406  146.2014  153.7062 C.ar    1  UNL1        0.0299
     30 C         140.5292  147.5660  153.5859 C.ar    1  UNL1        0.1424
     31 F         140.7345  148.3724  152.3378 F       1  UNL1       -0.2041
     32 C         139.7125  148.1240  154.7135 C.ar    1  UNL1        0.0593
     33 C         139.5072  147.3176  155.9615 C.ar    1  UNL1        0.1453
     34 F         138.6906  147.8757  157.0891 F       1  UNL1       -0.2040
@<TRIPOS>BOND
     1    13    14    1
     2    14    15    1
     3    14    16   am
     4    16    17    2
     5     1    16    1
     6     1     2    1
     7     2     3    1
     8     3     7    1
     9     7     8    1
    10     8     9    1
    11     9    10    1
    12    10    11    1
    13    11    12    1
    14     3     4    1
    15     4     5    1
    16     5     6    1
    17     6    18    1
    18    18    19   am
    19    19    20    2
    20    19    22    1
    21    22    23   ar
    22    23    24   ar
    23    24    27    1
    24    27    28   ar
    25    28    29   ar
    26    29    30   ar
    27    30    31    1
    28    30    32   ar
    29    32    33   ar
    30    33    34    1
    31    24    25   ar
    32    25    26   ar
    33     6     1    1
    34    26    22   ar
    35    12     7    1
    36    33    27   ar
    37    18    21    1
@<TRIPOS>MOLECULE
*****
 34 37 0 0 0
SMALL
GASTEIGER

@<TRIPOS>ATOM
      1 C         142.4991  143.3378  159.8071 C.3     1  UNL1        0.1105
      2 C         142.3440  143.8385  158.4017 C.3     1  UNL1        0.0829
      3 N         141.3914  144.9587  158.1054 N.3     1  UNL1       -0.2734
      4 C         140.5940  145.5782  159.2146 C.3     1  UNL1        0.0738
      5 C         140.7491  145.0775  160.6200 C.3     1  UNL1        0.0374
      6 C         141.7017  143.9573  160.9162 C.3     1  UNL1        0.0832
      7 C         141.2363  145.4594  156.7000 C.3     1  UNL1        0.0575
      8 C         140.1572  146.4479  156.3707 C.3     1  UNL1        0.0160
      9 C         140.0021  146.9486  154.9653 C.3     1  UNL1        0.0014
     10 C         140.9261  146.4608  153.8891 C.3     1  UNL1        0.0001
     11 C         142.0052  145.4723  154.2183 C.3     1  UNL1        0.0014
     12 C         142.1603  144.9716  155.6238 C.3     1  UNL1        0.0160
     13 C         143.9274  139.6759  160.3552 C.3     1  UNL1        0.1149
     14 N         142.9749  140.7961  160.0590 N.am    1  UNL1       -0.2760
     15 C         141.5454  140.4948  159.7183 C.3     1  UNL1        0.1149
     16 C         143.4517  142.2176  160.1034 C.2     1  UNL1        0.2283
     17 O         144.8810  142.5189  160.4440 O.2     1  UNL1       -0.2748
     18 N         141.8568  143.4566  162.3217 N.am    1  UNL1       -0.3006
     19 C         142.9636  143.9819  163.1872 C.2     1  UNL1        0.2669
     20 O         143.9154  145.0078  162.6472 O.2     1  UNL1       -0.2684
     21 H         141.2321  142.7833  162.6762 H       1  UNL1        0.1497
     22 C         143.1187  143.4812  164.5927 C.ar    1  UNL1        0.1761
     23 C         142.0938  142.7126  165.3730 C.ar    1  UNL1        0.0673
     24 C         142.6676  142.4176  166.7271 C.ar    1  UNL1        0.1792
     25 O         144.0472  143.0039  166.7837 O.2     1  UNL1       -0.3532
     26 N         144.3260  143.6613  165.4645 N.ar    1  UNL1       -0.0723
     27 C         141.9823  141.6680  167.8308 C.ar    1  UNL1        0.0648
     28 C         142.5606  140.3784  168.3333 C.ar    1  UNL1        0.0077
     29 C         141.8753  139.6286  169.4370 C.ar    1  UNL1        0.0299
     30 C         140.6116  140.1686  170.0383 C.ar    1  UNL1        0.1424
     31 F         139.9262  139.4189  171.1421 F       1  UNL1       -0.2041
     32 C         140.0333  141.4582  169.5358 C.ar    1  UNL1        0.0593
     33 C         140.7186  142.2078  168.4322 C.ar    1  UNL1        0.1453
     34 F         140.1403  143.4974  167.9297 F       1  UNL1       -0.2040
@<TRIPOS>BOND
     1    13    14    1
     2    14    15    1
     3    14    16   am
     4    16    17    2
     5     1    16    1
     6     1     2    1
     7     2     3    1
     8     3     7    1
     9     7     8    1
    10     8     9    1
    11     9    10    1
    12    10    11    1
    13    11    12    1
    14     3     4    1
    15     4     5    1
    16     5     6    1
    17     6    18    1
    18    18    19   am
    19    19    20    2
    20    19    22    1
    21    22    23   ar
    22    23    24   ar
    23    24    27    1
    24    27    28   ar
    25    28    29   ar
    26    29    30   ar
    27    30    31    1
    28    30    32   ar
    29    32    33   ar
    30    33    34    1
    31    24    25   ar
    32    25    26   ar
    33     6     1    1
    34    26    22   ar
    35    12     7    1
    36    33    27   ar
    37    18    21    1
@<TRIPOS>MOLECULE
*****
 34 37 0 0 0
SMALL
GASTEIGER

@<TRIPOS>ATOM
      1 C         142.6314  140.1889  164.6819 C.3     1  UNL1        0.1105
      2 C         142.2221  140.7706  166.0025 C.3     1  UNL1        0.0829
      3 N         140.8113  140.6121  166.4869 N.3     1  UNL1       -0.2734
      4 C         139.8099  139.8720  165.6508 C.3     1  UNL1        0.0738
      5 C         140.2192  139.2903  164.3302 C.3     1  UNL1        0.0374
      6 C         141.6299  139.4487  163.8457 C.3     1  UNL1        0.0832
      7 C         140.4020  141.1939  167.8076 C.3     1  UNL1        0.0575
      8 C         140.8036  142.5937  168.1673 C.3     1  UNL1        0.0160
      9 C         140.3943  143.1755  169.4879 C.3     1  UNL1        0.0014
     10 C         139.5835  142.3574  170.4489 C.3     1  UNL1        0.0001
     11 C         139.1820  140.9576  170.0892 C.3     1  UNL1        0.0014
     12 C         139.5913  140.3759  168.7685 C.3     1  UNL1        0.0160
     13 C         145.9422  141.8475  163.2545 C.3     1  UNL1        0.1149
     14 N         144.5314  141.6890  163.7389 N.am    1  UNL1       -0.2760
     15 C         143.6100  142.8724  163.7648 C.3     1  UNL1        0.1149
     16 C         144.0421  140.3473  164.1975 C.2     1  UNL1        0.2283
     17 O         144.9636  139.1640  164.1716 O.2     1  UNL1       -0.2748
     18 N         142.0392  138.8669  162.5250 N.am    1  UNL1       -0.3006
     19 C         142.0760  139.7349  161.3023 C.2     1  UNL1        0.2669
     20 O         141.7035  141.1846  161.4001 O.2     1  UNL1       -0.2684
     21 H         142.2837  137.9154  162.4608 H       1  UNL1        0.1497
     22 C         142.4853  139.1531  159.9816 C.ar    1  UNL1        0.1761
     23 C         141.7925  138.0374  159.2569 C.ar    1  UNL1        0.0673
     24 C         142.5383  137.7797  157.9812 C.ar    1  UNL1        0.1792
     25 O         143.6920  138.7362  157.9174 O.2     1  UNL1       -0.3532
     26 N         143.6593  139.5851  159.1538 N.ar    1  UNL1       -0.0723
     27 C         142.1913  136.7469  156.9504 C.ar    1  UNL1        0.0648
     28 C         143.0537  135.5304  156.7875 C.ar    1  UNL1        0.0077
     29 C         142.7068  134.4975  155.7567 C.ar    1  UNL1        0.0299
     30 C         141.4973  134.6811  154.8885 C.ar    1  UNL1        0.1424
     31 F         141.1503  133.6482  153.8576 F       1  UNL1       -0.2041
     32 C         140.6349  135.8975  155.0514 C.ar    1  UNL1        0.0593
     33 C         140.9819  136.9303  156.0823 C.ar    1  UNL1        0.1453
     34 F         140.1194  138.1467  156.2451 F       1  UNL1       -0.2040
@<TRIPOS>BOND
     1    13    14    1
     2    14    15    1
     3    14    16   am
     4    16    17    2
     5     1    16    1
     6     1     2    1
     7     2     3    1
     8     3     7    1
     9     7     8    1
    10     8     9    1
    11     9    10    1
    12    10    11    1
    13    11    12    1
    14     3     4    1
    15     4     5    1
    16     5     6    1
    17     6    18    1
    18    18    19   am
    19    19    20    2
    20    19    22    1
    21    22    23   ar
    22    23    24   ar
    23    24    27    1
    24    27    28   ar
    25    28    29   ar
    26    29    30   ar
    27    30    31    1
    28    30    32   ar
    29    32    33   ar
    30    33    34    1
    31    24    25   ar
    32    25    26   ar
    33     6     1    1
    34    26    22   ar
    35    12     7    1
    36    33    27   ar
    37    18    21    1
