@<TRIPOS>MOLECULE
*****
 32 36 0 0 0
SMALL
GASTEIGER

@<TRIPOS>ATOM
      1 C         138.5735  139.4396  164.2913 C.ar    1  UNL1        0.1564
      2 C         139.0366  138.0335  164.0499 C.ar    1  UNL1        0.0385
      3 C         139.4405  137.6032  162.6709 C.ar    1  UNL1        0.0033
      4 C         139.3813  138.5790  161.5333 C.ar    1  UNL1        0.0048
      5 C         138.9183  139.9851  161.7747 C.ar    1  UNL1        0.0567
      6 C         138.5143  140.4154  163.1537 C.ar    1  UNL1        0.1209
      7 N         138.0512  141.8217  163.3951 N.ar    1  UNL1       -0.2108
      8 C         137.9921  142.7975  162.2575 C.ar    1  UNL1        0.2163
      9 N         137.5290  144.2037  162.4988 N.pl3   1  UNL1       -0.3274
     10 N         138.3960  142.3672  160.8784 N.ar    1  UNL1       -0.1813
     11 N         138.4422  143.1013  159.5712 N.ar    1  UNL1       -0.1451
     12 C         138.9339  142.1488  158.5219 C.ar    1  UNL1        0.1769
     13 N         139.1915  140.8260  159.1806 N.ar    1  UNL1       -0.2086
     14 C         138.8591  140.9611  160.6370 C.ar    1  UNL1        0.1695
     15 H         137.2639  144.4861  163.4039 H       1  UNL1        0.1452
     16 H         137.4902  144.8442  161.7521 H       1  UNL1        0.1452
     17 C         138.0218  138.8507  166.7609 C.3     1  UNL1        0.2525
     18 O         138.1695  139.8699  165.6703 O.3     1  UNL1       -0.4699
     19 C         139.1329  142.4638  157.0688 C.3     1  UNL1        0.1408
     20 N         139.1546  143.8907  156.6068 N.3     1  UNL1       -0.2644
     21 C         140.2673  144.8009  157.0352 C.3     1  UNL1        0.0941
     22 C         140.2889  146.2278  156.5732 C.3     1  UNL1        0.1082
     23 N         139.1978  146.7445  155.6829 N.pl3   1  UNL1       -0.3035
     24 C         138.0852  145.8343  155.2546 C.3     1  UNL1        0.1067
     25 C         138.0635  144.4074  155.7166 C.3     1  UNL1        0.0777
     26 C         136.9509  143.4972  155.2883 C.3     1  UNL1        0.0192
     27 C         139.2194  148.1715  155.2209 C.ar    1  UNL1        0.0674
     28 C         138.5282  149.2312  156.0267 C.ar    1  UNL1        0.0177
     29 C         138.5498  150.6581  155.5647 C.ar    1  UNL1        0.0219
     30 C         139.2627  151.0253  154.2970 C.ar    1  UNL1        0.0990
     31 N         139.9539  149.9656  153.4913 N.ar    1  UNL1       -0.2410
     32 C         139.9323  148.5387  153.9533 C.ar    1  UNL1        0.1133
@<TRIPOS>BOND
     1    17    18    1
     2    18     1    1
     3     1     2   ar
     4     2     3   ar
     5     3     4   ar
     6     4     5   ar
     7     5     6   ar
     8     6     7   ar
     9     7     8   ar
    10     8     9    1
    11     8    10   ar
    12    10    11   ar
    13    11    12   ar
    14    12    19    1
    15    19    20    1
    16    20    21    1
    17    21    22    1
    18    22    23    1
    19    23    27    1
    20    27    28   ar
    21    28    29   ar
    22    29    30   ar
    23    30    31   ar
    24    31    32   ar
    25    23    24    1
    26    24    25    1
    27    25    26    1
    28    12    13   ar
    29    13    14   ar
    30     6     1   ar
    31    14    10   ar
    32    14     5   ar
    33    25    20    1
    34    32    27   ar
    35     9    15    1
    36     9    16    1
@<TRIPOS>MOLECULE
*****
 32 36 0 0 0
SMALL
GASTEIGER

@<TRIPOS>ATOM
      1 C         142.4565  137.7124  156.4676 C.ar    1  UNL1        0.1564
      2 C         141.4549  137.9970  155.3879 C.ar    1  UNL1        0.0385
      3 C         140.0843  138.4894  155.7471 C.ar    1  UNL1        0.0033
      4 C         139.7153  138.6973  157.1861 C.ar    1  UNL1        0.0048
      5 C         140.7169  138.4126  158.2658 C.ar    1  UNL1        0.0567
      6 C         142.0875  137.9202  157.9065 C.ar    1  UNL1        0.1209
      7 N         143.0891  137.6356  158.9863 N.ar    1  UNL1       -0.2108
      8 C         142.7201  137.8434  160.4252 C.ar    1  UNL1        0.2163
      9 N         143.7217  137.5588  161.5050 N.pl3   1  UNL1       -0.3274
     10 N         141.3495  138.3358  160.7845 N.ar    1  UNL1       -0.1813
     11 N         140.7039  138.6324  162.1055 N.ar    1  UNL1       -0.1451
     12 C         139.3033  139.1003  161.8423 C.ar    1  UNL1        0.1769
     13 N         139.0833  139.0929  160.3585 N.ar    1  UNL1       -0.2086
     14 C         140.3480  138.6205  159.7048 C.ar    1  UNL1        0.1695
     15 H         144.6213  137.2356  161.2692 H       1  UNL1        0.1452
     16 H         143.4795  137.6952  162.4495 H       1  UNL1        0.1452
     17 C         144.0251  135.7941  155.6871 C.3     1  UNL1        0.2525
     18 O         143.8270  137.2200  156.1083 O.3     1  UNL1       -0.4699
     19 C         138.2989  139.5046  162.8805 C.3     1  UNL1        0.1408
     20 N         138.7606  139.9674  164.2305 N.3     1  UNL1       -0.2644
     21 C         139.0242  141.4239  164.4744 C.3     1  UNL1        0.0941
     22 C         139.4859  141.8867  165.8244 C.3     1  UNL1        0.1082
     23 N         139.6841  140.8931  166.9306 N.pl3   1  UNL1       -0.3035
     24 C         139.4206  139.4367  166.6867 C.3     1  UNL1        0.1067
     25 C         138.9588  138.9739  165.3367 C.3     1  UNL1        0.0777
     26 C         138.6953  137.5175  165.0928 C.3     1  UNL1        0.0192
     27 C         140.1459  141.3559  168.2806 C.ar    1  UNL1        0.0674
     28 C         141.1119  142.4981  168.3920 C.ar    1  UNL1        0.0177
     29 C         141.5736  142.9609  169.7420 C.ar    1  UNL1        0.0219
     30 C         141.0694  142.2816  170.9807 C.ar    1  UNL1        0.0990
     31 N         140.1034  141.1394  170.8693 N.ar    1  UNL1       -0.2410
     32 C         139.6417  140.6766  169.5193 C.ar    1  UNL1        0.1133
@<TRIPOS>BOND
     1    17    18    1
     2    18     1    1
     3     1     2   ar
     4     2     3   ar
     5     3     4   ar
     6     4     5   ar
     7     5     6   ar
     8     6     7   ar
     9     7     8   ar
    10     8     9    1
    11     8    10   ar
    12    10    11   ar
    13    11    12   ar
    14    12    19    1
    15    19    20    1
    16    20    21    1
    17    21    22    1
    18    22    23    1
    19    23    27    1
    20    27    28   ar
    21    28    29   ar
    22    29    30   ar
    23    30    31   ar
    24    31    32   ar
    25    23    24    1
    26    24    25    1
    27    25    26    1
    28    12    13   ar
    29    13    14   ar
    30     6     1   ar
    31    14    10   ar
    32    14     5   ar
    33    25    20    1
    34    32    27   ar
    35     9    15    1
    36     9    16    1
@<TRIPOS>MOLECULE
*****
 32 36 0 0 0
SMALL
GASTEIGER

@<TRIPOS>ATOM
      1 C         138.3969  139.6273  169.3400 C.ar    1  UNL1        0.1564
      2 C         137.6871  138.9563  168.2016 C.ar    1  UNL1        0.0385
      3 C         138.2274  139.0735  166.8073 C.ar    1  UNL1        0.0033
      4 C         139.4777  139.8617  166.5512 C.ar    1  UNL1        0.0048
      5 C         140.1875  140.5328  167.6896 C.ar    1  UNL1        0.0567
      6 C         139.6471  140.4156  169.0839 C.ar    1  UNL1        0.1209
      7 N         140.3570  141.0866  170.2223 N.ar    1  UNL1       -0.2108
      8 C         141.6072  141.8749  169.9662 C.ar    1  UNL1        0.2163
      9 N         142.3171  142.5459  171.1046 N.pl3   1  UNL1       -0.3274
     10 N         142.1476  141.9921  168.5719 N.ar    1  UNL1       -0.1813
     11 N         143.3502  142.6966  168.0174 N.ar    1  UNL1       -0.1451
     12 C         143.3836  142.4610  166.5364 C.ar    1  UNL1        0.1769
     13 N         142.2016  141.6108  166.1756 N.ar    1  UNL1       -0.2086
     14 C         141.4378  141.3210  167.4335 C.ar    1  UNL1        0.1695
     15 H         141.9625  142.4690  172.0198 H       1  UNL1        0.1452
     16 H         143.1377  143.0633  170.9365 H       1  UNL1        0.1452
     17 C         136.5746  138.7718  170.9823 C.3     1  UNL1        0.2525
     18 O         137.8565  139.5101  170.7343 O.3     1  UNL1       -0.4699
     19 C         144.4174  142.9837  165.5835 C.3     1  UNL1        0.1408
     20 N         144.3725  142.5883  164.1373 N.3     1  UNL1       -0.2644
     21 C         144.6499  141.1690  163.7388 C.3     1  UNL1        0.0941
     22 C         144.6050  140.7736  162.2926 C.3     1  UNL1        0.1082
     23 N         144.2827  141.7974  161.2448 N.pl3   1  UNL1       -0.3035
     24 C         144.0053  143.2167  161.6432 C.3     1  UNL1        0.1067
     25 C         144.0502  143.6121  163.0895 C.3     1  UNL1        0.0777
     26 C         143.7729  145.0313  163.4879 C.3     1  UNL1        0.0192
     27 C         144.2378  141.4020  159.7985 C.ar    1  UNL1        0.0674
     28 C         144.5745  142.4057  158.7358 C.ar    1  UNL1        0.0177
     29 C         144.5296  142.0103  157.2895 C.ar    1  UNL1        0.0219
     30 C         144.1480  140.6112  156.9060 C.ar    1  UNL1        0.0990
     31 N         143.8113  139.6076  157.9688 N.ar    1  UNL1       -0.2410
     32 C         143.8562  140.0030  159.4150 C.ar    1  UNL1        0.1133
@<TRIPOS>BOND
     1    17    18    1
     2    18     1    1
     3     1     2   ar
     4     2     3   ar
     5     3     4   ar
     6     4     5   ar
     7     5     6   ar
     8     6     7   ar
     9     7     8   ar
    10     8     9    1
    11     8    10   ar
    12    10    11   ar
    13    11    12   ar
    14    12    19    1
    15    19    20    1
    16    20    21    1
    17    21    22    1
    18    22    23    1
    19    23    27    1
    20    27    28   ar
    21    28    29   ar
    22    29    30   ar
    23    30    31   ar
    24    31    32   ar
    25    23    24    1
    26    24    25    1
    27    25    26    1
    28    12    13   ar
    29    13    14   ar
    30     6     1   ar
    31    14    10   ar
    32    14     5   ar
    33    25    20    1
    34    32    27   ar
    35     9    15    1
    36     9    16    1
@<TRIPOS>MOLECULE
*****
 32 36 0 0 0
SMALL
GASTEIGER

@<TRIPOS>ATOM
      1 C         139.3527  139.7920  167.7219 C.ar    1  UNL1        0.1564
      2 C         138.2679  139.2000  166.8718 C.ar    1  UNL1        0.0385
      3 C         138.2448  139.4624  165.3951 C.ar    1  UNL1        0.0033
      4 C         139.3065  140.3168  164.7685 C.ar    1  UNL1        0.0048
      5 C         140.3912  140.9089  165.6186 C.ar    1  UNL1        0.0567
      6 C         140.4143  140.6465  167.0953 C.ar    1  UNL1        0.1209
      7 N         141.4992  141.2386  167.9454 N.ar    1  UNL1       -0.2108
      8 C         142.5608  142.0931  167.3188 C.ar    1  UNL1        0.2163
      9 N         143.6457  142.6852  168.1688 N.pl3   1  UNL1       -0.3274
     10 N         142.5377  142.3555  165.8421 N.ar    1  UNL1       -0.1813
     11 N         143.4432  143.1517  164.9498 N.ar    1  UNL1       -0.1451
     12 C         142.9181  143.0517  163.5484 C.ar    1  UNL1        0.1769
     13 N         141.6880  142.1937  163.5744 N.ar    1  UNL1       -0.2086
     14 C         141.4530  141.7634  164.9920 C.ar    1  UNL1        0.1695
     15 H         143.6609  142.5130  169.1380 H       1  UNL1        0.1452
     16 H         144.3425  143.2461  167.7576 H       1  UNL1        0.1452
     17 C         138.8167  140.5458  170.1497 C.3     1  UNL1        0.2525
     18 O         139.3758  139.5296  169.1986 O.3     1  UNL1       -0.4699
     19 C         143.5177  143.6966  162.3340 C.3     1  UNL1        0.1408
     20 N         142.6546  144.0100  161.1478 N.3     1  UNL1       -0.2644
     21 C         141.4760  144.9255  161.2989 C.3     1  UNL1        0.0941
     22 C         140.6129  145.2389  160.1128 C.3     1  UNL1        0.1082
     23 N         140.9285  144.6368  158.7756 N.pl3   1  UNL1       -0.3035
     24 C         142.1071  143.7214  158.6246 C.3     1  UNL1        0.1067
     25 C         142.9702  143.4080  159.8107 C.3     1  UNL1        0.0777
     26 C         144.1488  142.4926  159.6597 C.3     1  UNL1        0.0192
     27 C         140.0654  144.9502  157.5895 C.ar    1  UNL1        0.0674
     28 C         140.0006  146.3516  157.0585 C.ar    1  UNL1        0.0177
     29 C         139.1375  146.6650  155.8724 C.ar    1  UNL1        0.0219
     30 C         138.3393  145.5770  155.2172 C.ar    1  UNL1        0.0990
     31 N         138.4042  144.1757  155.7482 N.ar    1  UNL1       -0.2410
     32 C         139.2673  143.8623  156.9343 C.ar    1  UNL1        0.1133
@<TRIPOS>BOND
     1    17    18    1
     2    18     1    1
     3     1     2   ar
     4     2     3   ar
     5     3     4   ar
     6     4     5   ar
     7     5     6   ar
     8     6     7   ar
     9     7     8   ar
    10     8     9    1
    11     8    10   ar
    12    10    11   ar
    13    11    12   ar
    14    12    19    1
    15    19    20    1
    16    20    21    1
    17    21    22    1
    18    22    23    1
    19    23    27    1
    20    27    28   ar
    21    28    29   ar
    22    29    30   ar
    23    30    31   ar
    24    31    32   ar
    25    23    24    1
    26    24    25    1
    27    25    26    1
    28    12    13   ar
    29    13    14   ar
    30     6     1   ar
    31    14    10   ar
    32    14     5   ar
    33    25    20    1
    34    32    27   ar
    35     9    15    1
    36     9    16    1
@<TRIPOS>MOLECULE
*****
 32 36 0 0 0
SMALL
GASTEIGER

@<TRIPOS>ATOM
      1 C         140.4420  146.0357  156.8713 C.ar    1  UNL1        0.1564
      2 C         141.2833  145.5485  155.7290 C.ar    1  UNL1        0.0385
      3 C         142.3735  144.5478  155.9739 C.ar    1  UNL1        0.0033
      4 C         142.6226  144.0344  157.3611 C.ar    1  UNL1        0.0048
      5 C         141.7813  144.5216  158.5033 C.ar    1  UNL1        0.0567
      6 C         140.6910  145.5223  158.2584 C.ar    1  UNL1        0.1209
      7 N         139.8498  146.0095  159.4008 N.ar    1  UNL1       -0.2108
      8 C         140.0988  145.4961  160.7880 C.ar    1  UNL1        0.2163
      9 N         139.2576  145.9833  161.9304 N.pl3   1  UNL1       -0.3274
     10 N         141.1891  144.4954  161.0329 N.ar    1  UNL1       -0.1813
     11 N         141.6645  143.8146  162.2821 N.ar    1  UNL1       -0.1451
     12 C         142.7996  142.9066  161.9118 C.ar    1  UNL1        0.1769
     13 N         143.0257  143.0262  160.4337 N.ar    1  UNL1       -0.2086
     14 C         142.0303  144.0082  159.8906 C.ar    1  UNL1        0.1695
     15 H         138.5420  146.6401  161.7697 H       1  UNL1        0.1452
     16 H         139.4210  145.6463  162.8409 H       1  UNL1        0.1452
     17 C         139.2383  147.7103  155.2911 C.3     1  UNL1        0.2525
     18 O         139.3518  147.0364  156.6264 O.3     1  UNL1       -0.4699
     19 C         143.5729  142.0324  162.8541 C.3     1  UNL1        0.1408
     20 N         143.0380  141.7525  164.2272 N.3     1  UNL1       -0.2644
     21 C         141.9876  140.6996  164.4227 C.3     1  UNL1        0.0941
     22 C         141.4527  140.4197  165.7959 C.3     1  UNL1        0.1082
     23 N         141.9682  141.1927  166.9735 N.pl3   1  UNL1       -0.3035
     24 C         143.0185  142.2455  166.7780 C.3     1  UNL1        0.1067
     25 C         143.5534  142.5254  165.4049 C.3     1  UNL1        0.0777
     26 C         144.6038  143.5782  165.2093 C.3     1  UNL1        0.0192
     27 C         141.4333  140.9128  168.3467 C.ar    1  UNL1        0.0674
     28 C         139.9650  140.6796  168.5465 C.ar    1  UNL1        0.0177
     29 C         139.4301  140.3997  169.9197 C.ar    1  UNL1        0.0219
     30 C         140.3635  140.3530  171.0930 C.ar    1  UNL1        0.0990
     31 N         141.8317  140.5862  170.8932 N.ar    1  UNL1       -0.2410
     32 C         142.3666  140.8661  169.5200 C.ar    1  UNL1        0.1133
@<TRIPOS>BOND
     1    17    18    1
     2    18     1    1
     3     1     2   ar
     4     2     3   ar
     5     3     4   ar
     6     4     5   ar
     7     5     6   ar
     8     6     7   ar
     9     7     8   ar
    10     8     9    1
    11     8    10   ar
    12    10    11   ar
    13    11    12   ar
    14    12    19    1
    15    19    20    1
    16    20    21    1
    17    21    22    1
    18    22    23    1
    19    23    27    1
    20    27    28   ar
    21    28    29   ar
    22    29    30   ar
    23    30    31   ar
    24    31    32   ar
    25    23    24    1
    26    24    25    1
    27    25    26    1
    28    12    13   ar
    29    13    14   ar
    30     6     1   ar
    31    14    10   ar
    32    14     5   ar
    33    25    20    1
    34    32    27   ar
    35     9    15    1
    36     9    16    1
@<TRIPOS>MOLECULE
*****
 32 36 0 0 0
SMALL
GASTEIGER

@<TRIPOS>ATOM
      1 C         143.9883  131.5408  155.3827 C.ar    1  UNL1        0.1564
      2 C         144.8830  131.1334  156.5155 C.ar    1  UNL1        0.0385
      3 C         145.1078  132.0678  157.6672 C.ar    1  UNL1        0.0033
      4 C         144.4379  133.4097  157.6860 C.ar    1  UNL1        0.0048
      5 C         143.5431  133.8172  156.5532 C.ar    1  UNL1        0.0567
      6 C         143.3183  132.8827  155.4015 C.ar    1  UNL1        0.1209
      7 N         142.4235  133.2903  154.2686 N.ar    1  UNL1       -0.2108
      8 C         141.7536  134.6322  154.2874 C.ar    1  UNL1        0.2163
      9 N         140.8588  135.0397  153.1546 N.pl3   1  UNL1       -0.3274
     10 N         141.9784  135.5666  155.4391 N.ar    1  UNL1       -0.1813
     11 N         141.4575  136.9425  155.7317 N.ar    1  UNL1       -0.1451
     12 C         142.0303  137.3853  157.0454 C.ar    1  UNL1        0.1769
     13 N         142.9052  136.2831  157.5647 N.ar    1  UNL1       -0.2086
     14 C         142.8731  135.1592  156.5719 C.ar    1  UNL1        0.1695
     15 H         140.7112  134.4264  152.3987 H       1  UNL1        0.1452
     16 H         140.4191  135.9205  153.1669 H       1  UNL1        0.1452
     17 C         144.6963  129.4531  154.0079 C.3     1  UNL1        0.2525
     18 O         143.7635  130.6064  154.2311 O.3     1  UNL1       -0.4699
     19 C         141.7732  138.6996  157.7212 C.3     1  UNL1        0.1408
     20 N         141.1711  138.7316  159.0946 N.3     1  UNL1       -0.2644
     21 C         139.6937  138.5406  159.2704 C.3     1  UNL1        0.0941
     22 C         139.0915  138.5726  160.6439 C.3     1  UNL1        0.1082
     23 N         139.9667  138.7956  161.8415 N.pl3   1  UNL1       -0.3035
     24 C         141.4440  138.9867  161.6657 C.3     1  UNL1        0.1067
     25 C         142.0462  138.9547  160.2922 C.3     1  UNL1        0.0777
     26 C         143.5235  139.1457  160.1164 C.3     1  UNL1        0.0192
     27 C         139.3645  138.8277  163.2150 C.ar    1  UNL1        0.0674
     28 C         139.3951  137.5998  164.0761 C.ar    1  UNL1        0.0177
     29 C         138.7929  137.6318  165.4495 C.ar    1  UNL1        0.0219
     30 C         138.1602  138.8917  165.9619 C.ar    1  UNL1        0.0990
     31 N         138.1297  140.1195  165.1007 N.ar    1  UNL1       -0.2410
     32 C         138.7318  140.0874  163.7273 C.ar    1  UNL1        0.1133
@<TRIPOS>BOND
     1    17    18    1
     2    18     1    1
     3     1     2   ar
     4     2     3   ar
     5     3     4   ar
     6     4     5   ar
     7     5     6   ar
     8     6     7   ar
     9     7     8   ar
    10     8     9    1
    11     8    10   ar
    12    10    11   ar
    13    11    12   ar
    14    12    19    1
    15    19    20    1
    16    20    21    1
    17    21    22    1
    18    22    23    1
    19    23    27    1
    20    27    28   ar
    21    28    29   ar
    22    29    30   ar
    23    30    31   ar
    24    31    32   ar
    25    23    24    1
    26    24    25    1
    27    25    26    1
    28    12    13   ar
    29    13    14   ar
    30     6     1   ar
    31    14    10   ar
    32    14     5   ar
    33    25    20    1
    34    32    27   ar
    35     9    15    1
    36     9    16    1
@<TRIPOS>MOLECULE
*****
 32 36 0 0 0
SMALL
GASTEIGER

@<TRIPOS>ATOM
      1 C         137.2607  141.0998  156.1348 C.ar    1  UNL1        0.1564
      2 C         137.6147  142.1419  155.1157 C.ar    1  UNL1        0.0385
      3 C         138.3611  143.3747  155.5317 C.ar    1  UNL1        0.0033
      4 C         138.7535  143.5654  156.9668 C.ar    1  UNL1        0.0048
      5 C         138.3995  142.5233  157.9859 C.ar    1  UNL1        0.0567
      6 C         137.6531  141.2905  157.5699 C.ar    1  UNL1        0.1209
      7 N         137.2991  140.2483  158.5891 N.ar    1  UNL1       -0.2108
      8 C         137.6915  140.4390  160.0242 C.ar    1  UNL1        0.2163
      9 N         137.3375  139.3969  161.0434 N.pl3   1  UNL1       -0.3274
     10 N         138.4379  141.6718  160.4402 N.ar    1  UNL1       -0.1813
     11 N         138.9538  142.1314  161.7716 N.ar    1  UNL1       -0.1451
     12 C         139.6266  143.4576  161.5753 C.ar    1  UNL1        0.1769
     13 N         139.5265  143.8176  160.1226 N.ar    1  UNL1       -0.2086
     14 C         138.7919  142.7140  159.4211 C.ar    1  UNL1        0.1695
     15 H         136.8476  138.5877  160.7704 H       1  UNL1        0.1452
     16 H         137.5950  139.5220  161.9853 H       1  UNL1        0.1452
     17 C         135.0755  139.9647  155.3062 C.3     1  UNL1        0.2525
     18 O         136.5143  139.8669  155.7188 O.3     1  UNL1       -0.4699
     19 C         140.2841  144.2795  162.6441 C.3     1  UNL1        0.1408
     20 N         140.7208  143.6330  163.9252 N.3     1  UNL1       -0.2644
     21 C         142.0141  142.8749  163.9799 C.3     1  UNL1        0.0941
     22 C         142.4508  142.2284  165.2610 C.3     1  UNL1        0.1082
     23 N         141.5943  142.3399  166.4874 N.pl3   1  UNL1       -0.3035
     24 C         140.3011  143.0980  166.4327 C.3     1  UNL1        0.1067
     25 C         139.8644  143.7445  165.1516 C.3     1  UNL1        0.0777
     26 C         138.5712  144.5025  165.0969 C.3     1  UNL1        0.0192
     27 C         142.0310  141.6934  167.7686 C.ar    1  UNL1        0.0674
     28 C         142.0210  142.4788  169.0465 C.ar    1  UNL1        0.0177
     29 C         142.4578  141.8323  170.3276 C.ar    1  UNL1        0.0219
     30 C         142.9045  140.4003  170.3308 C.ar    1  UNL1        0.0990
     31 N         142.9145  139.6150  169.0529 N.ar    1  UNL1       -0.2410
     32 C         142.4778  140.2615  167.7718 C.ar    1  UNL1        0.1133
@<TRIPOS>BOND
     1    17    18    1
     2    18     1    1
     3     1     2   ar
     4     2     3   ar
     5     3     4   ar
     6     4     5   ar
     7     5     6   ar
     8     6     7   ar
     9     7     8   ar
    10     8     9    1
    11     8    10   ar
    12    10    11   ar
    13    11    12   ar
    14    12    19    1
    15    19    20    1
    16    20    21    1
    17    21    22    1
    18    22    23    1
    19    23    27    1
    20    27    28   ar
    21    28    29   ar
    22    29    30   ar
    23    30    31   ar
    24    31    32   ar
    25    23    24    1
    26    24    25    1
    27    25    26    1
    28    12    13   ar
    29    13    14   ar
    30     6     1   ar
    31    14    10   ar
    32    14     5   ar
    33    25    20    1
    34    32    27   ar
    35     9    15    1
    36     9    16    1
@<TRIPOS>MOLECULE
*****
 32 36 0 0 0
SMALL
GASTEIGER

@<TRIPOS>ATOM
      1 C         143.9014  142.5998  164.7763 C.ar    1  UNL1        0.1564
      2 C         145.1419  141.9327  164.2603 C.ar    1  UNL1        0.0385
      3 C         145.4739  141.9941  162.7988 C.ar    1  UNL1        0.0033
      4 C         144.5654  142.7224  161.8533 C.ar    1  UNL1        0.0048
      5 C         143.3249  143.3895  162.3693 C.ar    1  UNL1        0.0567
      6 C         142.9930  143.3282  163.8308 C.ar    1  UNL1        0.1209
      7 N         141.7524  143.9953  164.3467 N.ar    1  UNL1       -0.2108
      8 C         140.8440  144.7236  163.4012 C.ar    1  UNL1        0.2163
      9 N         139.6034  145.3907  163.9171 N.pl3   1  UNL1       -0.3274
     10 N         141.1760  144.7850  161.9397 N.ar    1  UNL1       -0.1813
     11 N         140.4761  145.4248  160.7774 N.ar    1  UNL1       -0.1451
     12 C         141.2840  145.1531  159.5432 C.ar    1  UNL1        0.1769
     13 N         142.4832  144.3454  159.9426 N.ar    1  UNL1       -0.2086
     14 C         142.4164  144.1179  161.4237 C.ar    1  UNL1        0.1695
     15 H         139.3855  145.3505  164.8764 H       1  UNL1        0.1452
     16 H         139.0072  145.8688  163.2965 H       1  UNL1        0.1452
     17 C         142.7357  141.4112  166.7709 C.3     1  UNL1        0.2525
     18 O         143.5694  142.5384  166.2378 O.3     1  UNL1       -0.4699
     19 C         140.9512  145.6091  158.1534 C.3     1  UNL1        0.1408
     20 N         139.8844  144.9050  157.3684 N.3     1  UNL1       -0.2644
     21 C         139.3942  143.5577  157.8097 C.3     1  UNL1        0.0941
     22 C         138.3274  142.8537  157.0247 C.3     1  UNL1        0.1082
     23 N         137.7507  143.4969  155.7984 N.pl3   1  UNL1       -0.3035
     24 C         138.2409  144.8441  155.3571 C.3     1  UNL1        0.1067
     25 C         139.3077  145.5481  156.1421 C.3     1  UNL1        0.0777
     26 C         139.7978  146.8953  155.7009 C.3     1  UNL1        0.0192
     27 C         136.6839  142.7928  155.0134 C.ar    1  UNL1        0.0674
     28 C         135.8644  141.7156  155.6601 C.ar    1  UNL1        0.0177
     29 C         134.7976  141.0116  154.8752 C.ar    1  UNL1        0.0219
     30 C         134.5503  141.3847  153.4435 C.ar    1  UNL1        0.0990
     31 N         135.3697  142.4619  152.7968 N.ar    1  UNL1       -0.2410
     32 C         136.4366  143.1659  153.5818 C.ar    1  UNL1        0.1133
@<TRIPOS>BOND
     1    17    18    1
     2    18     1    1
     3     1     2   ar
     4     2     3   ar
     5     3     4   ar
     6     4     5   ar
     7     5     6   ar
     8     6     7   ar
     9     7     8   ar
    10     8     9    1
    11     8    10   ar
    12    10    11   ar
    13    11    12   ar
    14    12    19    1
    15    19    20    1
    16    20    21    1
    17    21    22    1
    18    22    23    1
    19    23    27    1
    20    27    28   ar
    21    28    29   ar
    22    29    30   ar
    23    30    31   ar
    24    31    32   ar
    25    23    24    1
    26    24    25    1
    27    25    26    1
    28    12    13   ar
    29    13    14   ar
    30     6     1   ar
    31    14    10   ar
    32    14     5   ar
    33    25    20    1
    34    32    27   ar
    35     9    15    1
    36     9    16    1
@<TRIPOS>MOLECULE
*****
 32 36 0 0 0
SMALL
GASTEIGER

@<TRIPOS>ATOM
      1 C         141.1531  141.4904  168.9343 C.ar    1  UNL1        0.1564
      2 C         142.4015  142.2560  168.6098 C.ar    1  UNL1        0.0385
      3 C         143.0016  142.1654  167.2380 C.ar    1  UNL1        0.0033
      4 C         142.3533  141.3091  166.1909 C.ar    1  UNL1        0.0048
      5 C         141.1050  140.5435  166.5155 C.ar    1  UNL1        0.0567
      6 C         140.5049  140.6341  167.8872 C.ar    1  UNL1        0.1209
      7 N         139.2565  139.8684  168.2118 N.ar    1  UNL1       -0.2108
      8 C         138.6082  139.0122  167.1646 C.ar    1  UNL1        0.2163
      9 N         137.3598  138.2465  167.4892 N.pl3   1  UNL1       -0.3274
     10 N         139.2083  138.9216  165.7929 N.ar    1  UNL1       -0.1813
     11 N         138.7961  138.1650  164.5650 N.ar    1  UNL1       -0.1451
     12 C         139.7897  138.4631  163.4815 C.ar    1  UNL1        0.1769
     13 N         140.8160  139.4039  164.0398 N.ar    1  UNL1       -0.2086
     14 C         140.4567  139.6872  165.4683 C.ar    1  UNL1        0.1695
     15 H         136.9659  138.3060  168.3895 H       1  UNL1        0.1452
     16 H         136.9343  137.6845  166.8019 H       1  UNL1        0.1452
     17 C         139.8167  142.8198  170.7222 C.3     1  UNL1        0.2525
     18 O         140.5530  141.5810  170.3061 O.3     1  UNL1       -0.4699
     19 C         139.7619  137.9164  162.0849 C.3     1  UNL1        0.1408
     20 N         139.2479  138.7628  160.9583 N.3     1  UNL1       -0.2644
     21 C         137.8501  139.3051  161.0049 C.3     1  UNL1        0.0941
     22 C         137.3360  140.1515  159.8782 C.3     1  UNL1        0.1082
     23 N         138.2199  140.4557  158.7050 N.pl3   1  UNL1       -0.3035
     24 C         139.6176  139.9135  158.6585 C.3     1  UNL1        0.1067
     25 C         140.1316  139.0670  159.7851 C.3     1  UNL1        0.0777
     26 C         141.5294  138.5248  159.7386 C.3     1  UNL1        0.0192
     27 C         137.7059  141.3022  157.5784 C.ar    1  UNL1        0.0674
     28 C         138.4226  142.5649  157.2015 C.ar    1  UNL1        0.0177
     29 C         137.9085  143.4113  156.0749 C.ar    1  UNL1        0.0219
     30 C         136.6778  142.9950  155.3251 C.ar    1  UNL1        0.0990
     31 N         135.9612  141.7324  155.7020 N.ar    1  UNL1       -0.2410
     32 C         136.4752  140.8859  156.8286 C.ar    1  UNL1        0.1133
@<TRIPOS>BOND
     1    17    18    1
     2    18     1    1
     3     1     2   ar
     4     2     3   ar
     5     3     4   ar
     6     4     5   ar
     7     5     6   ar
     8     6     7   ar
     9     7     8   ar
    10     8     9    1
    11     8    10   ar
    12    10    11   ar
    13    11    12   ar
    14    12    19    1
    15    19    20    1
    16    20    21    1
    17    21    22    1
    18    22    23    1
    19    23    27    1
    20    27    28   ar
    21    28    29   ar
    22    29    30   ar
    23    30    31   ar
    24    31    32   ar
    25    23    24    1
    26    24    25    1
    27    25    26    1
    28    12    13   ar
    29    13    14   ar
    30     6     1   ar
    31    14    10   ar
    32    14     5   ar
    33    25    20    1
    34    32    27   ar
    35     9    15    1
    36     9    16    1
