@<TRIPOS>MOLECULE
*****
 27 31 0 0 0
SMALL
GASTEIGER

@<TRIPOS>ATOM
      1 C         142.1777  140.0919  167.3596 C.ar    1  UNL1       -0.0207
      2 C         140.9527  139.6539  166.6128 C.ar    1  UNL1       -0.0027
      3 C         140.5388  140.3734  165.3635 C.ar    1  UNL1        0.0188
      4 C         141.3497  141.5309  164.8609 C.ar    1  UNL1        0.0812
      5 N         140.9356  142.2504  163.6115 N.ar    1  UNL1       -0.2453
      6 C         141.7466  143.4079  163.1089 C.ar    1  UNL1        0.0829
      7 C         142.9715  143.8459  163.8557 C.ar    1  UNL1        0.0192
      8 C         143.3855  143.1264  165.1051 C.ar    1  UNL1        0.0030
      9 C         142.5746  141.9689  165.6076 C.ar    1  UNL1        0.0174
     10 C         142.9886  141.2494  166.8570 C.ar    1  UNL1       -0.0027
     11 C         141.3326  144.1274  161.8596 C.ar    1  UNL1        0.0400
     12 C         140.0665  144.9316  161.8418 C.ar    1  UNL1        0.1037
     13 N         139.6525  145.6511  160.5924 N.ar    1  UNL1       -0.2074
     14 C         140.5045  145.5664  159.3608 C.ar    1  UNL1        0.2628
     15 C         141.7706  144.7623  159.3786 C.ar    1  UNL1        0.1956
     16 C         142.1846  144.0427  160.6280 C.ar    1  UNL1        0.0449
     17 O         142.4024  144.8623  158.0218 O.3     1  UNL1       -0.4329
     18 C         141.5268  145.7284  157.1655 C.3     1  UNL1        0.4305
     19 O         140.3539  146.1635  157.9931 O.3     1  UNL1       -0.4183
     20 C         142.5917  139.3724  168.6090 C.3     1  UNL1        0.0437
     21 C         142.2932  139.9694  169.9522 C.3     1  UNL1        0.0768
     22 C         139.0805  140.5413  169.9266 C.3     1  UNL1        0.0173
     23 C         140.1596  141.5776  170.0340 C.3     1  UNL1        0.0576
     24 C         139.9515  143.0587  170.1484 C.3     1  UNL1        0.0174
     25 C         141.2996  143.7112  170.2309 C.3     1  UNL1        0.0187
     26 C         142.3409  142.6334  170.1675 C.3     1  UNL1        0.0721
     27 N         141.6363  141.3148  170.0457 N.3     1  UNL1       -0.2737
@<TRIPOS>BOND
     1    23    22    1
     2    23    24    1
     3    24    25    1
     4    25    26    1
     5    26    27    1
     6    27    21    1
     7    21    20    1
     8    20     1    1
     9     1     2   ar
    10     2     3   ar
    11     3     4   ar
    12     4     5   ar
    13     5     6   ar
    14     6    11    1
    15    11    12   ar
    16    12    13   ar
    17    13    14   ar
    18    14    15   ar
    19    15    16   ar
    20    15    17    1
    21    17    18    1
    22    18    19    1
    23     6     7   ar
    24     7     8   ar
    25     8     9   ar
    26     9    10   ar
    27    27    23    1
    28    10     1   ar
    29     9     4   ar
    30    16    11   ar
    31    19    14    1
@<TRIPOS>MOLECULE
*****
 27 31 0 0 0
SMALL
GASTEIGER

@<TRIPOS>ATOM
      1 C         139.8574  140.4752  167.0436 C.ar    1  UNL1       -0.0207
      2 C         140.1583  139.4616  165.9796 C.ar    1  UNL1       -0.0027
      3 C         140.5230  139.9122  164.5962 C.ar    1  UNL1        0.0188
      4 C         140.5867  141.3764  164.2767 C.ar    1  UNL1        0.0812
      5 N         140.9514  141.8270  162.8932 N.ar    1  UNL1       -0.2453
      6 C         141.0152  143.2912  162.5737 C.ar    1  UNL1        0.0829
      7 C         140.7142  144.3048  163.6377 C.ar    1  UNL1        0.0192
      8 C         140.3495  143.8542  165.0212 C.ar    1  UNL1        0.0030
      9 C         140.2858  142.3900  165.3407 C.ar    1  UNL1        0.0174
     10 C         139.9212  141.9394  166.7241 C.ar    1  UNL1       -0.0027
     11 C         141.3798  143.7418  161.1903 C.ar    1  UNL1        0.0400
     12 C         142.6606  143.2765  160.5631 C.ar    1  UNL1        0.1037
     13 N         143.0253  143.7271  159.1797 N.ar    1  UNL1       -0.2074
     14 C         142.1092  144.6430  158.4233 C.ar    1  UNL1        0.2628
     15 C         140.8285  145.1082  159.0504 C.ar    1  UNL1        0.1956
     16 C         140.4638  144.6576  160.4339 C.ar    1  UNL1        0.0449
     17 O         140.1300  146.0023  158.0693 O.3     1  UNL1       -0.4329
     18 C         140.9790  146.0896  156.8358 C.3     1  UNL1        0.4305
     19 O         142.2022  145.2495  157.0546 O.3     1  UNL1       -0.4183
     20 C         139.4927  140.0247  168.4271 C.3     1  UNL1        0.0437
     21 C         140.5541  139.9010  169.4798 C.3     1  UNL1        0.0768
     22 C         139.8590  142.8950  170.5762 C.3     1  UNL1        0.0173
     23 C         141.2182  142.3905  170.1915 C.3     1  UNL1        0.0576
     24 C         142.4965  143.1736  170.2432 C.3     1  UNL1        0.0174
     25 C         143.6061  142.2814  169.7712 C.3     1  UNL1        0.0187
     26 C         143.0135  140.9468  169.4278 C.3     1  UNL1        0.0721
     27 N         141.5377  141.0144  169.6875 N.3     1  UNL1       -0.2737
@<TRIPOS>BOND
     1    23    22    1
     2    23    24    1
     3    24    25    1
     4    25    26    1
     5    26    27    1
     6    27    21    1
     7    21    20    1
     8    20     1    1
     9     1     2   ar
    10     2     3   ar
    11     3     4   ar
    12     4     5   ar
    13     5     6   ar
    14     6    11    1
    15    11    12   ar
    16    12    13   ar
    17    13    14   ar
    18    14    15   ar
    19    15    16   ar
    20    15    17    1
    21    17    18    1
    22    18    19    1
    23     6     7   ar
    24     7     8   ar
    25     8     9   ar
    26     9    10   ar
    27    27    23    1
    28    10     1   ar
    29     9     4   ar
    30    16    11   ar
    31    19    14    1
@<TRIPOS>MOLECULE
*****
 27 31 0 0 0
SMALL
GASTEIGER

@<TRIPOS>ATOM
      1 C         139.3101  140.2100  167.8444 C.ar    1  UNL1       -0.0207
      2 C         139.9963  141.3524  167.1559 C.ar    1  UNL1       -0.0027
      3 C         140.3045  141.2686  165.6903 C.ar    1  UNL1        0.0188
      4 C         139.9265  140.0425  164.9133 C.ar    1  UNL1        0.0812
      5 N         140.2348  139.9587  163.4477 N.ar    1  UNL1       -0.2453
      6 C         139.8568  138.7326  162.6706 C.ar    1  UNL1        0.0829
      7 C         139.1706  137.5902  163.3593 C.ar    1  UNL1        0.0192
      8 C         138.8623  137.6740  164.8248 C.ar    1  UNL1        0.0030
      9 C         139.2403  138.9001  165.6018 C.ar    1  UNL1        0.0174
     10 C         138.9321  138.9839  167.0674 C.ar    1  UNL1       -0.0027
     11 C         140.1650  138.6488  161.2051 C.ar    1  UNL1        0.0400
     12 C         139.0618  138.7837  160.1977 C.ar    1  UNL1        0.1037
     13 N         139.3700  138.6999  158.7321 N.ar    1  UNL1       -0.2074
     14 C         140.7815  138.4812  158.2739 C.ar    1  UNL1        0.2628
     15 C         141.8847  138.3463  159.2811 C.ar    1  UNL1        0.1956
     16 C         141.5765  138.4301  160.7468 C.ar    1  UNL1        0.0449
     17 O         143.1698  138.1385  158.5361 O.3     1  UNL1       -0.4329
     18 C         142.8609  138.1450  157.0683 C.3     1  UNL1        0.4305
     19 O         141.3848  138.3568  156.9062 O.3     1  UNL1       -0.4183
     20 C         139.0018  140.2938  169.3101 C.3     1  UNL1        0.0437
     21 C         140.1079  140.1799  170.3168 C.3     1  UNL1        0.0768
     22 C         142.8328  139.4327  168.6840 C.3     1  UNL1        0.0173
     23 C         142.5794  140.7018  169.4424 C.3     1  UNL1        0.0576
     24 C         143.5340  141.8502  169.5834 C.3     1  UNL1        0.0174
     25 C         142.8714  142.9035  170.4211 C.3     1  UNL1        0.0187
     26 C         141.5073  142.4060  170.7978 C.3     1  UNL1        0.0721
     27 N         141.3269  141.0453  170.1929 N.3     1  UNL1       -0.2737
@<TRIPOS>BOND
     1    23    22    1
     2    23    24    1
     3    24    25    1
     4    25    26    1
     5    26    27    1
     6    27    21    1
     7    21    20    1
     8    20     1    1
     9     1     2   ar
    10     2     3   ar
    11     3     4   ar
    12     4     5   ar
    13     5     6   ar
    14     6    11    1
    15    11    12   ar
    16    12    13   ar
    17    13    14   ar
    18    14    15   ar
    19    15    16   ar
    20    15    17    1
    21    17    18    1
    22    18    19    1
    23     6     7   ar
    24     7     8   ar
    25     8     9   ar
    26     9    10   ar
    27    27    23    1
    28    10     1   ar
    29     9     4   ar
    30    16    11   ar
    31    19    14    1
@<TRIPOS>MOLECULE
*****
 27 31 0 0 0
SMALL
GASTEIGER

@<TRIPOS>ATOM
      1 C         139.4179  137.6214  164.4723 C.ar    1  UNL1       -0.0207
      2 C         140.9036  137.4823  164.6252 C.ar    1  UNL1       -0.0027
      3 C         141.7980  137.6339  163.4306 C.ar    1  UNL1        0.0188
      4 C         141.2067  137.9245  162.0831 C.ar    1  UNL1        0.0812
      5 N         142.1011  138.0760  160.8885 N.ar    1  UNL1       -0.2453
      6 C         141.5098  138.3666  159.5409 C.ar    1  UNL1        0.0829
      7 C         140.0241  138.5057  159.3880 C.ar    1  UNL1        0.0192
      8 C         139.1297  138.3542  160.5826 C.ar    1  UNL1        0.0030
      9 C         139.7210  138.0636  161.9301 C.ar    1  UNL1        0.0174
     10 C         138.8266  137.9120  163.1247 C.ar    1  UNL1       -0.0027
     11 C         142.4041  138.5182  158.3463 C.ar    1  UNL1        0.0400
     12 C         142.7306  137.3252  157.4976 C.ar    1  UNL1        0.1037
     13 N         143.6249  137.4767  156.3030 N.ar    1  UNL1       -0.2074
     14 C         144.1929  138.8212  155.9570 C.ar    1  UNL1        0.2628
     15 C         143.8665  140.0142  156.8057 C.ar    1  UNL1        0.1956
     16 C         142.9721  139.8627  158.0003 C.ar    1  UNL1        0.0449
     17 O         144.5686  141.2043  156.2221 O.3     1  UNL1       -0.4329
     18 C         145.3289  140.7469  155.0126 C.3     1  UNL1        0.4305
     19 O         145.0967  139.2741  154.8489 O.3     1  UNL1       -0.4183
     20 C         138.5235  137.4699  165.6669 C.3     1  UNL1        0.0437
     21 C         138.0636  138.6839  166.4183 C.3     1  UNL1        0.0768
     22 C         138.2398  141.2475  164.4068 C.3     1  UNL1        0.0173
     23 C         139.0594  141.0412  165.6460 C.3     1  UNL1        0.0576
     24 C         140.1039  141.9771  166.1782 C.3     1  UNL1        0.0174
     25 C         140.6685  141.3771  167.4318 C.3     1  UNL1        0.0187
     26 C         139.9729  140.0704  167.6743 C.3     1  UNL1        0.0721
     27 N         138.9784  139.8629  166.5706 N.3     1  UNL1       -0.2737
@<TRIPOS>BOND
     1    23    22    1
     2    23    24    1
     3    24    25    1
     4    25    26    1
     5    26    27    1
     6    27    21    1
     7    21    20    1
     8    20     1    1
     9     1     2   ar
    10     2     3   ar
    11     3     4   ar
    12     4     5   ar
    13     5     6   ar
    14     6    11    1
    15    11    12   ar
    16    12    13   ar
    17    13    14   ar
    18    14    15   ar
    19    15    16   ar
    20    15    17    1
    21    17    18    1
    22    18    19    1
    23     6     7   ar
    24     7     8   ar
    25     8     9   ar
    26     9    10   ar
    27    27    23    1
    28    10     1   ar
    29     9     4   ar
    30    16    11   ar
    31    19    14    1
@<TRIPOS>MOLECULE
*****
 27 31 0 0 0
SMALL
GASTEIGER

@<TRIPOS>ATOM
      1 C         138.5881  139.2986  165.8583 C.ar    1  UNL1       -0.0207
      2 C         138.8809  137.9682  165.2305 C.ar    1  UNL1       -0.0027
      3 C         138.9233  137.8367  163.7370 C.ar    1  UNL1        0.0188
      4 C         138.6729  139.0357  162.8711 C.ar    1  UNL1        0.0812
      5 N         138.7152  138.9041  161.3774 N.ar    1  UNL1       -0.2453
      6 C         138.4648  140.1031  160.5115 C.ar    1  UNL1        0.0829
      7 C         138.1720  141.4336  161.1393 C.ar    1  UNL1        0.0192
      8 C         138.1296  141.5651  162.6329 C.ar    1  UNL1        0.0030
      9 C         138.3801  140.3661  163.4988 C.ar    1  UNL1        0.0174
     10 C         138.3377  140.4976  164.9924 C.ar    1  UNL1       -0.0027
     11 C         138.5072  139.9716  159.0179 C.ar    1  UNL1        0.0400
     12 C         139.3609  138.9148  158.3820 C.ar    1  UNL1        0.1037
     13 N         139.4033  138.7833  156.8884 N.ar    1  UNL1       -0.2074
     14 C         138.5920  139.7086  156.0307 C.ar    1  UNL1        0.2628
     15 C         137.7383  140.7654  156.6666 C.ar    1  UNL1        0.1956
     16 C         137.6959  140.8969  158.1603 C.ar    1  UNL1        0.0449
     17 O         137.0522  141.5278  155.5721 O.3     1  UNL1       -0.4329
     18 C         137.4819  140.9422  154.2596 C.3     1  UNL1        0.4305
     19 O         138.4336  139.8179  154.5431 O.3     1  UNL1       -0.4183
     20 C         138.5457  139.4302  167.3519 C.3     1  UNL1        0.0437
     21 C         139.7954  139.7648  168.1111 C.3     1  UNL1        0.0768
     22 C         140.9810  142.4954  166.7743 C.3     1  UNL1        0.0173
     23 C         140.4708  142.3502  168.1774 C.3     1  UNL1        0.0576
     24 C         140.4161  143.4346  169.2123 C.3     1  UNL1        0.0174
     25 C         139.8373  142.8496  170.4665 C.3     1  UNL1        0.0187
     26 C         139.5343  141.4036  170.2066 C.3     1  UNL1        0.0721
     27 N         139.9259  141.0951  168.7919 N.3     1  UNL1       -0.2737
@<TRIPOS>BOND
     1    23    22    1
     2    23    24    1
     3    24    25    1
     4    25    26    1
     5    26    27    1
     6    27    21    1
     7    21    20    1
     8    20     1    1
     9     1     2   ar
    10     2     3   ar
    11     3     4   ar
    12     4     5   ar
    13     5     6   ar
    14     6    11    1
    15    11    12   ar
    16    12    13   ar
    17    13    14   ar
    18    14    15   ar
    19    15    16   ar
    20    15    17    1
    21    17    18    1
    22    18    19    1
    23     6     7   ar
    24     7     8   ar
    25     8     9   ar
    26     9    10   ar
    27    27    23    1
    28    10     1   ar
    29     9     4   ar
    30    16    11   ar
    31    19    14    1
@<TRIPOS>MOLECULE
*****
 27 31 0 0 0
SMALL
GASTEIGER

@<TRIPOS>ATOM
      1 C         142.1130  139.3838  167.9120 C.ar    1  UNL1       -0.0207
      2 C         143.1474  139.4200  166.8263 C.ar    1  UNL1       -0.0027
      3 C         142.7658  139.8503  165.4410 C.ar    1  UNL1        0.0188
      4 C         141.3498  140.2444  165.1413 C.ar    1  UNL1        0.0812
      5 N         140.9683  140.6748  163.7559 N.ar    1  UNL1       -0.2453
      6 C         139.5523  141.0689  163.4563 C.ar    1  UNL1        0.0829
      7 C         138.5180  141.0326  164.5420 C.ar    1  UNL1        0.0192
      8 C         138.8995  140.6023  165.9273 C.ar    1  UNL1        0.0030
      9 C         140.3155  140.2082  166.2270 C.ar    1  UNL1        0.0174
     10 C         140.6971  139.7779  167.6123 C.ar    1  UNL1       -0.0027
     11 C         139.1708  141.4992  162.0709 C.ar    1  UNL1        0.0400
     12 C         139.3041  142.9383  161.6691 C.ar    1  UNL1        0.1037
     13 N         138.9225  143.3686  160.2838 N.ar    1  UNL1       -0.2074
     14 C         138.4076  142.3599  159.3002 C.ar    1  UNL1        0.2628
     15 C         138.2743  140.9209  159.7020 C.ar    1  UNL1        0.1956
     16 C         138.6559  140.4905  161.0873 C.ar    1  UNL1        0.0449
     17 O         137.7408  140.1587  158.5254 O.3     1  UNL1       -0.4329
     18 C         137.5444  141.1266  157.3964 C.3     1  UNL1        0.4305
     19 O         137.9565  142.4871  157.8753 O.3     1  UNL1       -0.4183
     20 C         142.4946  138.9534  169.2974 C.3     1  UNL1        0.0437
     21 C         142.4913  139.9488  170.4195 C.3     1  UNL1        0.0768
     22 C         143.4634  142.6320  168.8370 C.3     1  UNL1        0.0173
     23 C         142.1609  142.4583  169.5604 C.3     1  UNL1        0.0576
     24 C         141.0766  143.4875  169.6834 C.3     1  UNL1        0.0174
     25 C         139.9596  142.8901  170.4869 C.3     1  UNL1        0.0187
     26 C         140.3536  141.4918  170.8604 C.3     1  UNL1        0.0721
     27 N         141.7141  141.2250  170.2878 N.3     1  UNL1       -0.2737
@<TRIPOS>BOND
     1    23    22    1
     2    23    24    1
     3    24    25    1
     4    25    26    1
     5    26    27    1
     6    27    21    1
     7    21    20    1
     8    20     1    1
     9     1     2   ar
    10     2     3   ar
    11     3     4   ar
    12     4     5   ar
    13     5     6   ar
    14     6    11    1
    15    11    12   ar
    16    12    13   ar
    17    13    14   ar
    18    14    15   ar
    19    15    16   ar
    20    15    17    1
    21    17    18    1
    22    18    19    1
    23     6     7   ar
    24     7     8   ar
    25     8     9   ar
    26     9    10   ar
    27    27    23    1
    28    10     1   ar
    29     9     4   ar
    30    16    11   ar
    31    19    14    1
@<TRIPOS>MOLECULE
*****
 27 31 0 0 0
SMALL
GASTEIGER

@<TRIPOS>ATOM
      1 C         142.7038  138.4489  165.2141 C.ar    1  UNL1       -0.0207
      2 C         141.5515  137.5707  164.8255 C.ar    1  UNL1       -0.0027
      3 C         141.2576  137.3166  163.3767 C.ar    1  UNL1        0.0188
      4 C         142.1159  137.9406  162.3166 C.ar    1  UNL1        0.0812
      5 N         141.8218  137.6864  160.8677 N.ar    1  UNL1       -0.2453
      6 C         142.6801  138.3105  159.8076 C.ar    1  UNL1        0.0829
      7 C         143.8324  139.1887  160.1963 C.ar    1  UNL1        0.0192
      8 C         144.1264  139.4428  161.6450 C.ar    1  UNL1        0.0030
      9 C         143.2681  138.8188  162.7052 C.ar    1  UNL1        0.0174
     10 C         143.5621  139.0729  164.1539 C.ar    1  UNL1       -0.0027
     11 C         142.3862  138.0563  158.3588 C.ar    1  UNL1        0.0400
     12 C         141.6623  139.0900  157.5478 C.ar    1  UNL1        0.1037
     13 N         141.3683  138.8358  156.0991 N.ar    1  UNL1       -0.2074
     14 C         141.7982  137.5481  155.4612 C.ar    1  UNL1        0.2628
     15 C         142.5220  136.5144  156.2721 C.ar    1  UNL1        0.1956
     16 C         142.8160  136.7685  157.7210 C.ar    1  UNL1        0.0449
     17 O         142.8203  135.3483  155.3771 O.3     1  UNL1       -0.4329
     18 C         142.2808  135.6613  154.0128 C.3     1  UNL1        0.4305
     19 O         141.6491  137.0208  154.0649 O.3     1  UNL1       -0.4183
     20 C         142.9978  138.7031  166.6629 C.3     1  UNL1        0.0437
     21 C         142.6090  140.0094  167.2891 C.3     1  UNL1        0.0768
     22 C         139.4261  140.2055  166.5963 C.3     1  UNL1        0.0173
     23 C         140.0276  140.1492  167.9692 C.3     1  UNL1        0.0576
     24 C         139.2719  140.1731  169.2647 C.3     1  UNL1        0.0174
     25 C         140.2678  140.0977  170.3838 C.3     1  UNL1        0.0187
     26 C         141.6392  140.0272  169.7800 C.3     1  UNL1        0.0721
     27 N         141.4906  140.0590  168.2877 N.3     1  UNL1       -0.2737
@<TRIPOS>BOND
     1    23    22    1
     2    23    24    1
     3    24    25    1
     4    25    26    1
     5    26    27    1
     6    27    21    1
     7    21    20    1
     8    20     1    1
     9     1     2   ar
    10     2     3   ar
    11     3     4   ar
    12     4     5   ar
    13     5     6   ar
    14     6    11    1
    15    11    12   ar
    16    12    13   ar
    17    13    14   ar
    18    14    15   ar
    19    15    16   ar
    20    15    17    1
    21    17    18    1
    22    18    19    1
    23     6     7   ar
    24     7     8   ar
    25     8     9   ar
    26     9    10   ar
    27    27    23    1
    28    10     1   ar
    29     9     4   ar
    30    16    11   ar
    31    19    14    1
@<TRIPOS>MOLECULE
*****
 27 31 0 0 0
SMALL
GASTEIGER

@<TRIPOS>ATOM
      1 C         142.8958  138.3975  165.2247 C.ar    1  UNL1       -0.0207
      2 C         141.6625  137.5816  164.9734 C.ar    1  UNL1       -0.0027
      3 C         141.1981  137.3376  163.5681 C.ar    1  UNL1        0.0188
      4 C         141.9670  137.9096  162.4142 C.ar    1  UNL1        0.0812
      5 N         141.5025  137.6656  161.0089 N.ar    1  UNL1       -0.2453
      6 C         142.2715  138.2375  159.8549 C.ar    1  UNL1        0.0829
      7 C         143.5048  139.0535  160.1063 C.ar    1  UNL1        0.0192
      8 C         143.9692  139.2974  161.5115 C.ar    1  UNL1        0.0030
      9 C         143.2003  138.7255  162.6655 C.ar    1  UNL1        0.0174
     10 C         143.6647  138.9694  164.0707 C.ar    1  UNL1       -0.0027
     11 C         141.8071  137.9936  158.4497 C.ar    1  UNL1        0.0400
     12 C         142.7684  137.4755  157.4213 C.ar    1  UNL1        0.1037
     13 N         142.3040  137.2315  156.0161 N.ar    1  UNL1       -0.2074
     14 C         140.8783  137.5057  155.6391 C.ar    1  UNL1        0.2628
     15 C         139.9170  138.0238  156.6673 C.ar    1  UNL1        0.1956
     16 C         140.3813  138.2678  158.0727 C.ar    1  UNL1        0.0449
     17 O         138.5820  138.2005  156.0065 O.3     1  UNL1       -0.4329
     18 C         138.7183  137.7916  154.5698 C.3     1  UNL1        0.4305
     19 O         140.1375  137.3622  154.3427 O.3     1  UNL1       -0.4183
     20 C         143.3603  138.6414  166.6300 C.3     1  UNL1        0.0437
     21 C         142.6312  139.6206  167.5015 C.3     1  UNL1        0.0768
     22 C         139.3819  139.7376  167.2221 C.3     1  UNL1        0.0173
     23 C         140.3456  140.7865  166.7519 C.3     1  UNL1        0.0576
     24 C         139.9849  142.0732  166.0706 C.3     1  UNL1        0.0174
     25 C         141.2556  142.8148  165.7780 C.3     1  UNL1        0.0187
     26 C         142.4016  141.9863  166.2784 C.3     1  UNL1        0.0721
     27 N         141.8391  140.7327  166.8803 N.3     1  UNL1       -0.2737
@<TRIPOS>BOND
     1    23    22    1
     2    23    24    1
     3    24    25    1
     4    25    26    1
     5    26    27    1
     6    27    21    1
     7    21    20    1
     8    20     1    1
     9     1     2   ar
    10     2     3   ar
    11     3     4   ar
    12     4     5   ar
    13     5     6   ar
    14     6    11    1
    15    11    12   ar
    16    12    13   ar
    17    13    14   ar
    18    14    15   ar
    19    15    16   ar
    20    15    17    1
    21    17    18    1
    22    18    19    1
    23     6     7   ar
    24     7     8   ar
    25     8     9   ar
    26     9    10   ar
    27    27    23    1
    28    10     1   ar
    29     9     4   ar
    30    16    11   ar
    31    19    14    1
@<TRIPOS>MOLECULE
*****
 27 31 0 0 0
SMALL
GASTEIGER

@<TRIPOS>ATOM
      1 C         143.1533  142.8802  165.4483 C.ar    1  UNL1       -0.0207
      2 C         144.3111  143.5904  164.8120 C.ar    1  UNL1       -0.0027
      3 C         144.1924  144.1125  163.4108 C.ar    1  UNL1        0.0188
      4 C         142.9158  143.9245  162.6460 C.ar    1  UNL1        0.0812
      5 N         142.7971  144.4466  161.2448 N.ar    1  UNL1       -0.2453
      6 C         141.5205  144.2586  160.4800 C.ar    1  UNL1        0.0829
      7 C         140.3626  143.5483  161.1164 C.ar    1  UNL1        0.0192
      8 C         140.4814  143.0262  162.5175 C.ar    1  UNL1        0.0030
      9 C         141.7579  143.2143  163.2823 C.ar    1  UNL1        0.0174
     10 C         141.8767  142.6922  164.6835 C.ar    1  UNL1       -0.0027
     11 C         141.4018  144.7807  159.0788 C.ar    1  UNL1        0.0400
     12 C         142.4086  144.3803  158.0414 C.ar    1  UNL1        0.1037
     13 N         142.2898  144.9025  156.6403 N.ar    1  UNL1       -0.2074
     14 C         141.1644  145.8249  156.2765 C.ar    1  UNL1        0.2628
     15 C         140.1576  146.2253  157.3138 C.ar    1  UNL1        0.1956
     16 C         140.2763  145.7031  158.7150 C.ar    1  UNL1        0.0449
     17 O         139.1633  147.1422  156.6653 O.3     1  UNL1       -0.4329
     18 C         139.5556  147.3085  155.2271 C.3     1  UNL1        0.4305
     19 O         140.7923  146.4944  154.9868 O.3     1  UNL1       -0.4183
     20 C         143.2720  142.3581  166.8495 C.3     1  UNL1        0.0437
     21 C         142.4049  141.2208  167.3021 C.3     1  UNL1        0.0768
     22 C         142.2281  139.1958  169.8550 C.3     1  UNL1        0.0173
     23 C         141.4341  140.4551  169.6720 C.3     1  UNL1        0.0576
     24 C         140.4194  141.0048  170.6302 C.3     1  UNL1        0.0174
     25 C         139.8734  142.2753  170.0490 C.3     1  UNL1        0.0187
     26 C         140.5508  142.5109  168.7315 C.3     1  UNL1        0.0721
     27 N         141.5153  141.3859  168.4985 N.3     1  UNL1       -0.2737
@<TRIPOS>BOND
     1    23    22    1
     2    23    24    1
     3    24    25    1
     4    25    26    1
     5    26    27    1
     6    27    21    1
     7    21    20    1
     8    20     1    1
     9     1     2   ar
    10     2     3   ar
    11     3     4   ar
    12     4     5   ar
    13     5     6   ar
    14     6    11    1
    15    11    12   ar
    16    12    13   ar
    17    13    14   ar
    18    14    15   ar
    19    15    16   ar
    20    15    17    1
    21    17    18    1
    22    18    19    1
    23     6     7   ar
    24     7     8   ar
    25     8     9   ar
    26     9    10   ar
    27    27    23    1
    28    10     1   ar
    29     9     4   ar
    30    16    11   ar
    31    19    14    1
