@<TRIPOS>MOLECULE
*****
 31 34 0 0 0
SMALL
GASTEIGER

@<TRIPOS>ATOM
      1 C         142.1741  142.4861  164.2423 C.ar    1  UNL1        0.0502
      2 C         143.3812  142.8446  165.0574 C.ar    1  UNL1        0.0143
      3 C         143.4162  142.5309  166.5237 C.ar    1  UNL1       -0.0030
      4 C         142.2440  141.8586  167.1750 C.ar    1  UNL1       -0.0223
      5 C         141.0370  141.5001  166.3600 C.ar    1  UNL1       -0.0034
      6 C         141.0020  141.8138  164.8936 C.ar    1  UNL1        0.0089
      7 C         142.2790  141.5449  168.6415 C.3     1  UNL1        0.0251
      8 C         141.8879  142.5917  169.6420 C.3     1  UNL1        0.0215
      9 C         141.9229  142.2780  171.1084 C.3     1  UNL1        0.0689
     10 N         142.3491  140.9173  171.5743 N.3     1  UNL1       -0.2974
     11 C         142.7403  139.8705  170.5737 C.3     1  UNL1        0.0689
     12 C         142.7052  140.1842  169.1074 C.3     1  UNL1        0.0215
     13 H         141.5725  140.5340  172.1132 H       1  UNL1        0.1232
     14 C         139.7949  141.4553  164.0784 C.2     1  UNL1       -0.0253
     15 C         138.6285  142.3960  164.0118 C.2     1  UNL1       -0.0303
     16 C         137.4214  142.0376  163.1967 C.3     1  UNL1        0.0257
     17 C         137.3807  140.7383  162.4482 C.3     1  UNL1        0.0050
     18 C         138.5471  139.7975  162.5148 C.3     1  UNL1        0.0050
     19 C         139.7543  140.1560  163.3299 C.3     1  UNL1        0.0261
     20 C         141.6887  144.1522  162.3088 C.2     1  UNL1        0.2837
     21 O         141.2732  145.1909  163.3082 O.2     1  UNL1       -0.2665
     22 N         142.1391  142.7999  162.7758 N.am    1  UNL1       -0.2779
     23 H         142.4118  142.1182  162.1199 H       1  UNL1        0.1553
     24 C         140.9932  145.3771  158.6920 C.ar    1  UNL1        0.1469
     25 C         142.2063  144.5207  158.4797 C.ar    1  UNL1        0.1282
     26 N         142.6145  143.9576  159.8088 N.ar    1  UNL1       -0.2205
     27 C         141.6537  144.4660  160.8424 C.ar    1  UNL1        0.1958
     28 N         140.6517  145.3433  160.1522 N.ar    1  UNL1       -0.3257
     29 H         139.9016  145.8142  160.5821 H       1  UNL1        0.1682
     30 N         139.5105  146.8916  156.5688 N.1     1  UNL1       -0.1893
     31 C         140.2518  146.1343  157.6304 C.1     1  UNL1        0.1194
@<TRIPOS>BOND
     1    30    31    3
     2    31    24    1
     3    24    25   ar
     4    25    26   ar
     5    26    27   ar
     6    27    20    1
     7    20    21    2
     8    20    22   am
     9    22     1    1
    10     1     2   ar
    11     2     3   ar
    12     3     4   ar
    13     4     7    1
    14     7     8    1
    15     8     9    1
    16     9    10    1
    17    10    11    1
    18    11    12    1
    19     4     5   ar
    20     5     6   ar
    21     6    14    1
    22    14    15    2
    23    15    16    1
    24    16    17    1
    25    17    18    1
    26    18    19    1
    27    27    28   ar
    28    28    24   ar
    29     6     1   ar
    30    19    14    1
    31    12     7    1
    32    22    23    1
    33    10    13    1
    34    28    29    1
@<TRIPOS>MOLECULE
*****
 31 34 0 0 0
SMALL
GASTEIGER

@<TRIPOS>ATOM
      1 C         140.8634  142.5230  164.3125 C.ar    1  UNL1        0.0502
      2 C         140.0966  143.3743  165.2805 C.ar    1  UNL1        0.0143
      3 C         140.1026  143.0386  166.7424 C.ar    1  UNL1       -0.0030
      4 C         140.8753  141.8516  167.2363 C.ar    1  UNL1       -0.0223
      5 C         141.6421  141.0003  166.2682 C.ar    1  UNL1       -0.0034
      6 C         141.6362  141.3360  164.8063 C.ar    1  UNL1        0.0089
      7 C         140.8813  141.5160  168.6983 C.3     1  UNL1        0.0251
      8 C         141.6880  142.3435  169.6545 C.3     1  UNL1        0.0215
      9 C         141.6939  142.0078  171.1165 C.3     1  UNL1        0.0689
     10 N         140.8931  140.8446  171.6222 N.3     1  UNL1       -0.2974
     11 C         140.0864  140.0171  170.6659 C.3     1  UNL1        0.0689
     12 C         140.0805  140.3528  169.2040 C.3     1  UNL1        0.0215
     13 H         140.2412  141.2145  172.3140 H       1  UNL1        0.1232
     14 C         142.4030  140.4847  163.8381 C.2     1  UNL1       -0.0253
     15 C         143.7418  140.9390  163.3370 C.2     1  UNL1       -0.0303
     16 C         144.5086  140.0878  162.3689 C.3     1  UNL1        0.0257
     17 C         143.9366  138.7821  161.9018 C.3     1  UNL1        0.0050
     18 C         142.5978  138.3277  162.4029 C.3     1  UNL1        0.0050
     19 C         141.8310  139.1791  163.3711 C.3     1  UNL1        0.0261
     20 C         141.6678  144.0145  162.3430 C.2     1  UNL1        0.2837
     21 O         142.4841  144.8346  163.2976 O.2     1  UNL1       -0.2665
     22 N         140.8575  142.8587  162.8505 N.am    1  UNL1       -0.2779
     23 H         140.3217  142.3204  162.2240 H       1  UNL1        0.1553
     24 C         141.0369  145.2834  158.7296 C.ar    1  UNL1        0.1469
     25 C         142.2687  144.4501  158.5333 C.ar    1  UNL1        0.1282
     26 N         142.6549  143.8734  159.8630 N.ar    1  UNL1       -0.2205
     27 C         141.6619  144.3502  160.8811 C.ar    1  UNL1        0.1958
     28 N         140.6620  145.2216  160.1807 N.ar    1  UNL1       -0.3257
     29 H         139.8943  145.6737  160.5997 H       1  UNL1        0.1682
     30 N         139.5794  146.8062  156.5949 N.1     1  UNL1       -0.1893
     31 C         140.3081  146.0448  157.6623 C.1     1  UNL1        0.1194
@<TRIPOS>BOND
     1    30    31    3
     2    31    24    1
     3    24    25   ar
     4    25    26   ar
     5    26    27   ar
     6    27    20    1
     7    20    21    2
     8    20    22   am
     9    22     1    1
    10     1     2   ar
    11     2     3   ar
    12     3     4   ar
    13     4     7    1
    14     7     8    1
    15     8     9    1
    16     9    10    1
    17    10    11    1
    18    11    12    1
    19     4     5   ar
    20     5     6   ar
    21     6    14    1
    22    14    15    2
    23    15    16    1
    24    16    17    1
    25    17    18    1
    26    18    19    1
    27    27    28   ar
    28    28    24   ar
    29     6     1   ar
    30    19    14    1
    31    12     7    1
    32    22    23    1
    33    10    13    1
    34    28    29    1
@<TRIPOS>MOLECULE
*****
 31 34 0 0 0
SMALL
GASTEIGER

@<TRIPOS>ATOM
      1 C         142.3868  142.0169  164.3391 C.ar    1  UNL1        0.0502
      2 C         143.4626  142.2481  165.3585 C.ar    1  UNL1        0.0143
      3 C         143.1190  142.2758  166.8183 C.ar    1  UNL1       -0.0030
      4 C         141.6997  142.0721  167.2588 C.ar    1  UNL1       -0.0223
      5 C         140.6239  141.8408  166.2394 C.ar    1  UNL1       -0.0034
      6 C         140.9675  141.8132  164.7796 C.ar    1  UNL1        0.0089
      7 C         141.3561  142.0997  168.7187 C.3     1  UNL1        0.0251
      8 C         142.0612  141.1817  169.6726 C.3     1  UNL1        0.0215
      9 C         141.7176  141.2093  171.1325 C.3     1  UNL1        0.0689
     10 N         140.6690  142.1550  171.6384 N.3     1  UNL1       -0.2974
     11 C         139.9639  143.0731  170.6845 C.3     1  UNL1        0.0689
     12 C         140.3075  143.0454  169.2246 C.3     1  UNL1        0.0215
     13 H         141.1182  142.7459  172.3381 H       1  UNL1        0.1232
     14 C         139.8917  141.5819  163.7601 C.2     1  UNL1       -0.0253
     15 C         139.1786  142.7491  163.1442 C.2     1  UNL1       -0.0303
     16 C         138.1029  142.5179  162.1248 C.3     1  UNL1        0.0257
     17 C         137.7402  141.1194  161.7212 C.3     1  UNL1        0.0050
     18 C         138.4532  139.9522  162.3370 C.3     1  UNL1        0.0050
     19 C         139.5290  140.1835  163.3565 C.3     1  UNL1        0.0261
     20 C         142.8495  143.2729  162.1124 C.2     1  UNL1        0.2837
     21 O         142.6251  144.5842  162.8055 O.2     1  UNL1       -0.2665
     22 N         142.7304  141.9892  162.8792 N.am    1  UNL1       -0.2779
     23 H         142.8776  141.1286  162.4244 H       1  UNL1        0.1553
     24 C         144.2994  142.7469  158.5506 C.ar    1  UNL1        0.1469
     25 C         143.1440  143.6589  158.2614 C.ar    1  UNL1        0.1282
     26 N         142.4603  143.9669  159.5605 N.ar    1  UNL1       -0.2205
     27 C         143.1931  143.2453  160.6525 C.ar    1  UNL1        0.1958
     28 N         144.3297  142.4914  160.0284 N.ar    1  UNL1       -0.3257
     29 H         144.9812  141.9277  160.5049 H       1  UNL1        0.1682
     30 N         146.2135  141.6302  156.5284 N.1     1  UNL1       -0.1893
     31 C         145.2565  142.1886  157.5395 C.1     1  UNL1        0.1194
@<TRIPOS>BOND
     1    30    31    3
     2    31    24    1
     3    24    25   ar
     4    25    26   ar
     5    26    27   ar
     6    27    20    1
     7    20    21    2
     8    20    22   am
     9    22     1    1
    10     1     2   ar
    11     2     3   ar
    12     3     4   ar
    13     4     7    1
    14     7     8    1
    15     8     9    1
    16     9    10    1
    17    10    11    1
    18    11    12    1
    19     4     5   ar
    20     5     6   ar
    21     6    14    1
    22    14    15    2
    23    15    16    1
    24    16    17    1
    25    17    18    1
    26    18    19    1
    27    27    28   ar
    28    28    24   ar
    29     6     1   ar
    30    19    14    1
    31    12     7    1
    32    22    23    1
    33    10    13    1
    34    28    29    1
@<TRIPOS>MOLECULE
*****
 31 34 0 0 0
SMALL
GASTEIGER

@<TRIPOS>ATOM
      1 C         140.1720  141.2307  164.4508 C.ar    1  UNL1        0.0502
      2 C         139.2412  140.3735  165.2563 C.ar    1  UNL1        0.0143
      3 C         139.3830  140.3092  166.7482 C.ar    1  UNL1       -0.0030
      4 C         140.4556  141.1019  167.4345 C.ar    1  UNL1       -0.0223
      5 C         141.3864  141.9590  166.6291 C.ar    1  UNL1       -0.0034
      6 C         141.2446  142.0234  165.1372 C.ar    1  UNL1        0.0089
      7 C         140.5973  141.0375  168.9265 C.3     1  UNL1        0.0251
      8 C         141.4402  142.0496  169.6442 C.3     1  UNL1        0.0215
      9 C         141.5820  141.9852  171.1361 C.3     1  UNL1        0.0689
     10 N         140.8807  140.9086  171.9103 N.3     1  UNL1       -0.2974
     11 C         140.0378  139.8965  171.1925 C.3     1  UNL1        0.0689
     12 C         139.8961  139.9609  169.7007 C.3     1  UNL1        0.0215
     13 H         140.2712  141.3773  172.5806 H       1  UNL1        0.1232
     14 C         142.1755  142.8805  164.3316 C.2     1  UNL1       -0.0253
     15 C         141.8492  144.3255  164.0955 C.2     1  UNL1       -0.0303
     16 C         142.7800  145.1826  163.2900 C.3     1  UNL1        0.0257
     17 C         144.0371  144.5948  162.7205 C.3     1  UNL1        0.0050
     18 C         144.3634  143.1499  162.9566 C.3     1  UNL1        0.0050
     19 C         143.4325  142.2927  163.7622 C.3     1  UNL1        0.0261
     20 C         138.9733  142.1629  162.3427 C.2     1  UNL1        0.2837
     21 O         138.0580  142.9662  163.2185 O.2     1  UNL1       -0.2665
     22 N         140.0303  141.2951  162.9589 N.am    1  UNL1       -0.2779
     23 H         140.6310  140.7678  162.3841 H       1  UNL1        0.1553
     24 C         138.3483  141.6249  158.5500 C.ar    1  UNL1        0.1469
     25 C         138.8784  143.0281  158.5602 C.ar    1  UNL1        0.1282
     26 N         139.1770  143.4004  159.9822 N.ar    1  UNL1       -0.2205
     27 C         138.8315  142.2273  160.8508 C.ar    1  UNL1        0.1958
     28 N         138.3193  141.1300  159.9657 N.ar    1  UNL1       -0.3257
     29 H         138.0172  140.2411  160.2619 H       1  UNL1        0.1682
     30 N         137.4957  140.0796  156.1240 N.1     1  UNL1       -0.1893
     31 C         137.9220  140.8522  157.3370 C.1     1  UNL1        0.1194
@<TRIPOS>BOND
     1    30    31    3
     2    31    24    1
     3    24    25   ar
     4    25    26   ar
     5    26    27   ar
     6    27    20    1
     7    20    21    2
     8    20    22   am
     9    22     1    1
    10     1     2   ar
    11     2     3   ar
    12     3     4   ar
    13     4     7    1
    14     7     8    1
    15     8     9    1
    16     9    10    1
    17    10    11    1
    18    11    12    1
    19     4     5   ar
    20     5     6   ar
    21     6    14    1
    22    14    15    2
    23    15    16    1
    24    16    17    1
    25    17    18    1
    26    18    19    1
    27    27    28   ar
    28    28    24   ar
    29     6     1   ar
    30    19    14    1
    31    12     7    1
    32    22    23    1
    33    10    13    1
    34    28    29    1
@<TRIPOS>MOLECULE
*****
 31 34 0 0 0
SMALL
GASTEIGER

@<TRIPOS>ATOM
      1 C         141.7906  139.6868  164.0602 C.ar    1  UNL1        0.0502
      2 C         142.7354  138.9200  164.9373 C.ar    1  UNL1        0.0143
      3 C         142.6455  139.0485  166.4290 C.ar    1  UNL1       -0.0030
      4 C         141.6107  139.9438  167.0437 C.ar    1  UNL1       -0.0223
      5 C         140.6659  140.7105  166.1666 C.ar    1  UNL1       -0.0034
      6 C         140.7558  140.5820  164.6748 C.ar    1  UNL1        0.0089
      7 C         141.5208  140.0723  168.5355 C.3     1  UNL1        0.0251
      8 C         142.7679  140.2529  169.3492 C.3     1  UNL1        0.0215
      9 C         142.6780  140.3813  170.8411 C.3     1  UNL1        0.0689
     10 N         141.3410  140.3292  171.5191 N.3     1  UNL1       -0.2974
     11 C         140.0939  140.1486  170.7053 C.3     1  UNL1        0.0689
     12 C         140.1838  140.0202  169.2135 C.3     1  UNL1        0.0215
     13 H         141.2352  141.2061  172.0293 H       1  UNL1        0.1232
     14 C         139.8110  141.3488  163.7976 C.2     1  UNL1       -0.0253
     15 C         138.4563  140.7868  163.4830 C.2     1  UNL1       -0.0303
     16 C         137.5115  141.5535  162.6059 C.3     1  UNL1        0.0257
     17 C         137.9213  142.8823  162.0433 C.3     1  UNL1        0.0050
     18 C         139.2760  143.4443  162.3579 C.3     1  UNL1        0.0050
     19 C         140.2208  142.6776  163.2351 C.3     1  UNL1        0.0261
     20 C         141.2458  138.3883  161.8768 C.2     1  UNL1        0.2837
     21 O         140.5212  137.3468  162.6770 O.2     1  UNL1       -0.2665
     22 N         141.8805  139.5583  162.5683 N.am    1  UNL1       -0.2779
     23 H         142.3561  140.2418  162.0432 H       1  UNL1        0.1553
     24 C         142.1940  137.8610  158.1501 C.ar    1  UNL1        0.1469
     25 C         140.7539  138.2630  158.0287 C.ar    1  UNL1        0.1282
     26 N         140.2235  138.5094  159.4099 N.ar    1  UNL1       -0.2205
     27 C         141.3357  138.2598  160.3850 C.ar    1  UNL1        0.1958
     28 N         142.5535  137.8590  159.6064 N.ar    1  UNL1       -0.3257
     29 H         143.4341  137.6342  159.9847 H       1  UNL1        0.1682
     30 N         144.0323  137.1805  155.8791 N.1     1  UNL1       -0.1893
     31 C         143.1132  137.5208  157.0146 C.1     1  UNL1        0.1194
@<TRIPOS>BOND
     1    30    31    3
     2    31    24    1
     3    24    25   ar
     4    25    26   ar
     5    26    27   ar
     6    27    20    1
     7    20    21    2
     8    20    22   am
     9    22     1    1
    10     1     2   ar
    11     2     3   ar
    12     3     4   ar
    13     4     7    1
    14     7     8    1
    15     8     9    1
    16     9    10    1
    17    10    11    1
    18    11    12    1
    19     4     5   ar
    20     5     6   ar
    21     6    14    1
    22    14    15    2
    23    15    16    1
    24    16    17    1
    25    17    18    1
    26    18    19    1
    27    27    28   ar
    28    28    24   ar
    29     6     1   ar
    30    19    14    1
    31    12     7    1
    32    22    23    1
    33    10    13    1
    34    28    29    1
@<TRIPOS>MOLECULE
*****
 31 34 0 0 0
SMALL
GASTEIGER

@<TRIPOS>ATOM
      1 C         139.5913  141.0104  164.6623 C.ar    1  UNL1        0.0502
      2 C         139.5188  139.8946  165.6622 C.ar    1  UNL1        0.0143
      3 C         139.9955  140.1146  167.0672 C.ar    1  UNL1       -0.0030
      4 C         140.5447  141.4503  167.4724 C.ar    1  UNL1       -0.0223
      5 C         140.6173  142.5661  166.4726 C.ar    1  UNL1       -0.0034
      6 C         140.1406  142.3461  165.0675 C.ar    1  UNL1        0.0089
      7 C         141.0214  141.6703  168.8776 C.3     1  UNL1        0.0251
      8 C         142.0846  142.6905  169.1579 C.3     1  UNL1        0.0215
      9 C         142.5613  142.9105  170.5631 C.3     1  UNL1        0.0689
     10 N         141.9747  142.1101  171.6879 N.3     1  UNL1       -0.2974
     11 C         140.9115  141.0898  171.4076 C.3     1  UNL1        0.0689
     12 C         140.4348  140.8699  170.0025 C.3     1  UNL1        0.0215
     13 H         141.5755  142.7779  172.3475 H       1  UNL1        0.1232
     14 C         140.2131  143.4618  164.0675 C.2     1  UNL1       -0.0253
     15 C         138.9965  144.2903  163.7786 C.2     1  UNL1       -0.0303
     16 C         139.0690  145.4060  162.7787 C.3     1  UNL1        0.0257
     17 C         140.3582  145.6933  162.0676 C.3     1  UNL1        0.0050
     18 C         141.5748  144.8649  162.3565 C.3     1  UNL1        0.0050
     19 C         141.5022  143.7491  163.3565 C.3     1  UNL1        0.0261
     20 C         140.0816  140.3539  162.1967 C.2     1  UNL1        0.2837
     21 O         141.5254  140.1374  162.5416 O.2     1  UNL1       -0.2665
     22 N         139.1146  140.7904  163.2571 N.am    1  UNL1       -0.2779
     23 H         138.1671  140.9325  163.0308 H       1  UNL1        0.1553
     24 C         138.4129  140.3856  158.6926 C.ar    1  UNL1        0.1469
     25 C         139.3302  139.2054  158.5661 C.ar    1  UNL1        0.1282
     26 N         140.0669  139.0499  159.8634 N.ar    1  UNL1       -0.2205
     27 C         139.6050  140.1340  160.7916 C.ar    1  UNL1        0.1958
     28 N         138.5828  140.9594  160.0680 N.ar    1  UNL1       -0.3257
     29 H         138.1070  141.7407  160.4319 H       1  UNL1        0.1682
     30 N         136.5634  141.4171  156.5676 N.1     1  UNL1       -0.1893
     31 C         137.4882  140.9013  157.6301 C.1     1  UNL1        0.1194
@<TRIPOS>BOND
     1    30    31    3
     2    31    24    1
     3    24    25   ar
     4    25    26   ar
     5    26    27   ar
     6    27    20    1
     7    20    21    2
     8    20    22   am
     9    22     1    1
    10     1     2   ar
    11     2     3   ar
    12     3     4   ar
    13     4     7    1
    14     7     8    1
    15     8     9    1
    16     9    10    1
    17    10    11    1
    18    11    12    1
    19     4     5   ar
    20     5     6   ar
    21     6    14    1
    22    14    15    2
    23    15    16    1
    24    16    17    1
    25    17    18    1
    26    18    19    1
    27    27    28   ar
    28    28    24   ar
    29     6     1   ar
    30    19    14    1
    31    12     7    1
    32    22    23    1
    33    10    13    1
    34    28    29    1
@<TRIPOS>MOLECULE
*****
 31 34 0 0 0
SMALL
GASTEIGER

@<TRIPOS>ATOM
      1 C         141.0477  140.9042  164.4022 C.ar    1  UNL1        0.0502
      2 C         141.5280  139.7953  165.2907 C.ar    1  UNL1        0.0143
      3 C         141.7218  140.0402  166.7577 C.ar    1  UNL1       -0.0030
      4 C         141.4352  141.3941  167.3364 C.ar    1  UNL1       -0.0223
      5 C         140.9549  142.5031  166.4479 C.ar    1  UNL1       -0.0034
      6 C         140.7611  142.2581  164.9808 C.ar    1  UNL1        0.0089
      7 C         141.6290  141.6391  168.8035 C.3     1  UNL1        0.0251
      8 C         140.7798  140.9124  169.8038 C.3     1  UNL1        0.0215
      9 C         140.9736  141.1573  171.2710 C.3     1  UNL1        0.0689
     10 N         142.0166  142.1289  171.7378 N.3     1  UNL1       -0.2974
     11 C         142.8659  142.8557  170.7374 C.3     1  UNL1        0.0689
     12 C         142.6721  142.6107  169.2703 C.3     1  UNL1        0.0215
     13 H         142.6531  141.6097  172.3425 H       1  UNL1        0.1232
     14 C         140.2807  143.3671  164.0922 C.2     1  UNL1       -0.0253
     15 C         141.2674  144.3085  163.4676 C.2     1  UNL1       -0.0303
     16 C         140.7871  145.4174  162.5791 C.3     1  UNL1        0.0257
     17 C         139.3200  145.5850  162.3152 C.3     1  UNL1        0.0050
     18 C         138.3333  144.6436  162.9398 C.3     1  UNL1        0.0050
     19 C         138.8137  143.5347  163.8283 C.3     1  UNL1        0.0261
     20 C         139.5414  140.1390  162.4285 C.2     1  UNL1        0.2837
     21 O         138.4227  139.8636  163.3891 O.2     1  UNL1       -0.2665
     22 N         140.8539  140.6593  162.9350 N.am    1  UNL1       -0.2779
     23 H         141.5881  140.8400  162.3046 H       1  UNL1        0.1553
     24 C         139.5153  138.9306  158.7401 C.ar    1  UNL1        0.1469
     25 C         138.5833  140.1037  158.6673 C.ar    1  UNL1        0.1282
     26 N         138.4796  140.6992  160.0402 N.ar    1  UNL1       -0.2205
     27 C         139.3475  139.8941  160.9614 C.ar    1  UNL1        0.1958
     28 N         139.9876  138.8010  160.1579 N.ar    1  UNL1       -0.3257
     29 H         140.6086  138.1185  160.5008 H       1  UNL1        0.1682
     30 N         140.2972  137.1552  156.4517 N.1     1  UNL1       -0.1893
     31 C         139.9062  138.0429  157.5959 C.1     1  UNL1        0.1194
@<TRIPOS>BOND
     1    30    31    3
     2    31    24    1
     3    24    25   ar
     4    25    26   ar
     5    26    27   ar
     6    27    20    1
     7    20    21    2
     8    20    22   am
     9    22     1    1
    10     1     2   ar
    11     2     3   ar
    12     3     4   ar
    13     4     7    1
    14     7     8    1
    15     8     9    1
    16     9    10    1
    17    10    11    1
    18    11    12    1
    19     4     5   ar
    20     5     6   ar
    21     6    14    1
    22    14    15    2
    23    15    16    1
    24    16    17    1
    25    17    18    1
    26    18    19    1
    27    27    28   ar
    28    28    24   ar
    29     6     1   ar
    30    19    14    1
    31    12     7    1
    32    22    23    1
    33    10    13    1
    34    28    29    1
@<TRIPOS>MOLECULE
*****
 31 34 0 0 0
SMALL
GASTEIGER

@<TRIPOS>ATOM
      1 C         140.5308  140.5864  164.3420 C.ar    1  UNL1        0.0502
      2 C         139.5469  139.8859  165.2314 C.ar    1  UNL1        0.0143
      3 C         139.5346  140.1677  166.7046 C.ar    1  UNL1       -0.0030
      4 C         140.5063  141.1501  167.2883 C.ar    1  UNL1       -0.0223
      5 C         141.4902  141.8507  166.3989 C.ar    1  UNL1       -0.0034
      6 C         141.5025  141.5688  164.9257 C.ar    1  UNL1        0.0089
      7 C         140.4940  141.4320  168.7616 C.3     1  UNL1        0.0251
      8 C         140.7583  140.3255  169.7392 C.3     1  UNL1        0.0215
      9 C         140.7460  140.6073  171.2124 C.3     1  UNL1        0.0689
     10 N         140.4693  141.9958  171.7081 N.3     1  UNL1       -0.2974
     11 C         140.2049  143.1024  170.7305 C.3     1  UNL1        0.0689
     12 C         140.2173  142.8205  169.2573 C.3     1  UNL1        0.0215
     13 H         141.2790  142.2781  172.2604 H       1  UNL1        0.1232
     14 C         142.4864  142.2693  164.0362 C.2     1  UNL1       -0.0253
     15 C         143.8357  141.6632  163.7866 C.2     1  UNL1       -0.0303
     16 C         144.8196  142.3637  162.8972 C.3     1  UNL1        0.0257
     17 C         144.4543  143.6703  162.2572 C.3     1  UNL1        0.0050
     18 C         143.1051  144.2764  162.5068 C.3     1  UNL1        0.0050
     19 C         142.1212  143.5758  163.3963 C.3     1  UNL1        0.0261
     20 C         141.1769  139.0474  162.3509 C.2     1  UNL1        0.2837
     21 O         141.7983  138.0722  163.3064 O.2     1  UNL1       -0.2665
     22 N         140.5432  140.3045  162.8687 N.am    1  UNL1       -0.2779
     23 H         140.1353  140.9446  162.2416 H       1  UNL1        0.1553
     24 C         141.9468  138.2047  158.6412 C.ar    1  UNL1        0.1469
     25 C         140.4696  138.4587  158.5801 C.ar    1  UNL1        0.1282
     26 N         140.0015  138.8053  159.9624 N.ar    1  UNL1       -0.2205
     27 C         141.1892  138.7655  160.8777 C.ar    1  UNL1        0.1958
     28 N         142.3914  138.3943  160.0611 N.ar    1  UNL1       -0.3257
     29 H         143.3109  138.2929  160.3980 H       1  UNL1        0.1682
     30 N         143.7032  137.4499  156.3291 N.1     1  UNL1       -0.1893
     31 C         142.8250  137.8273  157.4851 C.1     1  UNL1        0.1194
@<TRIPOS>BOND
     1    30    31    3
     2    31    24    1
     3    24    25   ar
     4    25    26   ar
     5    26    27   ar
     6    27    20    1
     7    20    21    2
     8    20    22   am
     9    22     1    1
    10     1     2   ar
    11     2     3   ar
    12     3     4   ar
    13     4     7    1
    14     7     8    1
    15     8     9    1
    16     9    10    1
    17    10    11    1
    18    11    12    1
    19     4     5   ar
    20     5     6   ar
    21     6    14    1
    22    14    15    2
    23    15    16    1
    24    16    17    1
    25    17    18    1
    26    18    19    1
    27    27    28   ar
    28    28    24   ar
    29     6     1   ar
    30    19    14    1
    31    12     7    1
    32    22    23    1
    33    10    13    1
    34    28    29    1
@<TRIPOS>MOLECULE
*****
 31 34 0 0 0
SMALL
GASTEIGER

@<TRIPOS>ATOM
      1 C         141.4741  139.6859  164.6501 C.ar    1  UNL1        0.0502
      2 C         142.4162  139.0171  165.6068 C.ar    1  UNL1        0.0143
      3 C         142.5582  139.5373  167.0065 C.ar    1  UNL1       -0.0030
      4 C         141.7580  140.7262  167.4495 C.ar    1  UNL1       -0.0223
      5 C         140.8159  141.3949  166.4929 C.ar    1  UNL1       -0.0034
      6 C         140.6740  140.8748  165.0932 C.ar    1  UNL1        0.0089
      7 C         141.9000  141.2463  168.8493 C.3     1  UNL1        0.0251
      8 C         141.1605  140.5844  169.9740 C.3     1  UNL1        0.0215
      9 C         141.3025  141.1046  171.3738 C.3     1  UNL1        0.0689
     10 N         142.1840  142.2866  171.6488 N.3     1  UNL1       -0.2974
     11 C         142.9236  142.9485  170.5241 C.3     1  UNL1        0.0689
     12 C         142.7816  142.4284  169.1244 C.3     1  UNL1        0.0215
     13 H         142.8858  141.9801  172.3226 H       1  UNL1        0.1232
     14 C         139.7319  141.5435  164.1365 C.2     1  UNL1       -0.0253
     15 C         138.2899  141.1327  164.0933 C.2     1  UNL1       -0.0303
     16 C         137.3478  141.8013  163.1367 C.3     1  UNL1        0.0257
     17 C         137.8476  142.8810  162.2231 C.3     1  UNL1        0.0050
     18 C         139.2896  143.2919  162.2662 C.3     1  UNL1        0.0050
     19 C         140.2317  142.6231  163.2229 C.3     1  UNL1        0.0261
     20 C         142.2883  139.6115  162.1840 C.2     1  UNL1        0.2837
     21 O         143.3865  140.5774  162.5175 O.2     1  UNL1       -0.2665
     22 N         141.3321  139.1657  163.2503 N.am    1  UNL1       -0.2779
     23 H         140.6114  138.5318  163.0315 H       1  UNL1        0.1553
     24 C         141.1840  138.3755  158.6743 C.ar    1  UNL1        0.1469
     25 C         142.6719  138.2066  158.5862 C.ar    1  UNL1        0.1282
     26 N         143.2666  138.6491  159.8902 N.ar    1  UNL1       -0.2205
     27 C         142.1464  139.0914  160.7843 C.ar    1  UNL1        0.1958
     28 N         140.8592  138.9223  160.0328 N.ar    1  UNL1       -0.3257
     29 H         139.9593  139.1332  160.3718 H       1  UNL1        0.1682
     30 N         139.2051  137.7325  156.5131 N.1     1  UNL1       -0.1893
     31 C         140.1945  138.0540  157.5937 C.1     1  UNL1        0.1194
@<TRIPOS>BOND
     1    30    31    3
     2    31    24    1
     3    24    25   ar
     4    25    26   ar
     5    26    27   ar
     6    27    20    1
     7    20    21    2
     8    20    22   am
     9    22     1    1
    10     1     2   ar
    11     2     3   ar
    12     3     4   ar
    13     4     7    1
    14     7     8    1
    15     8     9    1
    16     9    10    1
    17    10    11    1
    18    11    12    1
    19     4     5   ar
    20     5     6   ar
    21     6    14    1
    22    14    15    2
    23    15    16    1
    24    16    17    1
    25    17    18    1
    26    18    19    1
    27    27    28   ar
    28    28    24   ar
    29     6     1   ar
    30    19    14    1
    31    12     7    1
    32    22    23    1
    33    10    13    1
    34    28    29    1
