@<TRIPOS>MOLECULE
*****
 22 24 0 0 0
SMALL
GASTEIGER

@<TRIPOS>ATOM
      1 C         139.8012  140.4373  165.4629 C.ar    1  UNL1       -0.0144
      2 C         138.9264  139.5994  164.5782 C.ar    1  UNL1        0.0051
      3 S         137.9985  140.5179  163.8399 S.2     1  UNL1       -0.0915
      4 C         138.2998  141.9236  164.2681 C.ar    1  UNL1        0.0288
      5 C         137.7036  143.2424  163.8743 C.ar    1  UNL1        0.0065
      6 C         138.2215  144.5114  164.4836 C.ar    1  UNL1        0.0005
      7 C         139.3356  144.4616  165.4867 C.ar    1  UNL1        0.0000
      8 C         139.9319  143.1428  165.8805 C.ar    1  UNL1        0.0002
      9 C         139.4139  141.8738  165.2712 C.ar    1  UNL1        0.0025
     10 C         142.1204  139.3179  165.8073 C.3     1  UNL1        0.0110
     11 C         140.8748  139.9283  166.3784 C.3     1  UNL1        0.0627
     12 C         140.7030  140.0294  167.8650 C.ar    1  UNL1        0.0627
     13 C         139.3318  140.1880  168.4525 C.ar    1  UNL1        0.0151
     14 C         139.1599  140.2892  169.9392 C.ar    1  UNL1        0.0028
     15 C         140.3591  140.2318  170.8384 C.ar    1  UNL1        0.0207
     16 C         141.7301  140.0733  170.2510 C.ar    1  UNL1        0.0985
     17 N         141.9021  139.9721  168.7644 N.ar    1  UNL1       -0.2478
     18 C         138.9717  138.1052  164.4538 C.3     1  UNL1        0.0499
     19 C         138.8941  137.4626  163.1007 C.3     1  UNL1        0.0774
     20 N         139.9238  137.7831  162.0581 N.3     1  UNL1       -0.2700
     21 C         141.3832  137.6592  162.3823 C.3     1  UNL1        0.0897
     22 C         139.4942  138.2274  160.6913 C.3     1  UNL1        0.0897
@<TRIPOS>BOND
     1    11    10    1
     2    11    12    1
     3    12    13   ar
     4    13    14   ar
     5    14    15   ar
     6    15    16   ar
     7    16    17   ar
     8    11     1    1
     9     1     2   ar
    10     2    18    1
    11    18    19    1
    12    19    20    1
    13    20    21    1
    14    20    22    1
    15     2     3   ar
    16     3     4   ar
    17     4     5   ar
    18     5     6   ar
    19     6     7   ar
    20     7     8   ar
    21     8     9   ar
    22    17    12   ar
    23     9     1   ar
    24     9     4   ar
@<TRIPOS>MOLECULE
*****
 22 24 0 0 0
SMALL
GASTEIGER

@<TRIPOS>ATOM
      1 C         140.5550  140.7820  165.5379 C.ar    1  UNL1       -0.0144
      2 C         139.7603  139.6555  164.9469 C.ar    1  UNL1        0.0051
      3 S         138.4894  140.2264  164.3913 S.2     1  UNL1       -0.0915
      4 C         138.4986  141.7058  164.6389 C.ar    1  UNL1        0.0288
      5 C         137.5094  142.7846  164.3106 C.ar    1  UNL1        0.0065
      6 C         137.7970  144.2067  164.6910 C.ar    1  UNL1        0.0005
      7 C         139.0736  144.5501  165.3997 C.ar    1  UNL1        0.0000
      8 C         140.0628  143.4714  165.7279 C.ar    1  UNL1        0.0002
      9 C         139.7752  142.0492  165.3476 C.ar    1  UNL1        0.0025
     10 C         141.9818  140.2776  167.6499 C.3     1  UNL1        0.0110
     11 C         141.8944  140.6624  166.2026 C.3     1  UNL1        0.0627
     12 C         143.1463  140.9277  165.4203 C.ar    1  UNL1        0.0627
     13 C         143.6670  142.3285  165.2905 C.ar    1  UNL1        0.0151
     14 C         144.9190  142.5938  164.5081 C.ar    1  UNL1        0.0028
     15 C         145.6504  141.4583  163.8555 C.ar    1  UNL1        0.0207
     16 C         145.1297  140.0576  163.9853 C.ar    1  UNL1        0.0985
     17 N         143.8777  139.7923  164.7676 N.ar    1  UNL1       -0.2478
     18 C         140.1654  138.2115  164.9168 C.3     1  UNL1        0.0499
     19 C         139.8464  137.3679  163.7183 C.3     1  UNL1        0.0774
     20 N         140.4213  137.7205  162.3785 N.3     1  UNL1       -0.2700
     21 C         139.5093  138.0585  161.2365 C.3     1  UNL1        0.0897
     22 C         141.9081  137.7351  162.1806 C.3     1  UNL1        0.0897
@<TRIPOS>BOND
     1    11    10    1
     2    11    12    1
     3    12    13   ar
     4    13    14   ar
     5    14    15   ar
     6    15    16   ar
     7    16    17   ar
     8    11     1    1
     9     1     2   ar
    10     2    18    1
    11    18    19    1
    12    19    20    1
    13    20    21    1
    14    20    22    1
    15     2     3   ar
    16     3     4   ar
    17     4     5   ar
    18     5     6   ar
    19     6     7   ar
    20     7     8   ar
    21     8     9   ar
    22    17    12   ar
    23     9     1   ar
    24     9     4   ar
@<TRIPOS>MOLECULE
*****
 22 24 0 0 0
SMALL
GASTEIGER

@<TRIPOS>ATOM
      1 C         141.6289  142.9078  165.1135 C.ar    1  UNL1       -0.0144
      2 C         142.6178  143.7949  164.4170 C.ar    1  UNL1        0.0051
      3 S         141.8615  144.6771  163.4685 S.2     1  UNL1       -0.0915
      4 C         140.4051  144.3352  163.5788 C.ar    1  UNL1        0.0288
      5 C         139.1913  144.8784  162.8848 C.ar    1  UNL1        0.0065
      6 C         137.8338  144.3280  163.2075 C.ar    1  UNL1        0.0005
      7 C         137.6900  143.2345  164.2242 C.ar    1  UNL1        0.0000
      8 C         138.9038  142.6914  164.9182 C.ar    1  UNL1        0.0002
      9 C         140.2614  143.2417  164.5955 C.ar    1  UNL1        0.0025
     10 C         142.1715  140.4439  165.7340 C.3     1  UNL1        0.0110
     11 C         141.9510  141.8691  166.1467 C.3     1  UNL1        0.0627
     12 C         142.0525  142.2555  167.5924 C.ar    1  UNL1        0.0627
     13 C         143.3624  142.1291  168.3123 C.ar    1  UNL1        0.0151
     14 C         143.4641  142.5155  169.7581 C.ar    1  UNL1        0.0028
     15 C         142.2557  143.0283  170.4841 C.ar    1  UNL1        0.0207
     16 C         140.9459  143.1547  169.7642 C.ar    1  UNL1        0.0985
     17 N         140.8442  142.7683  168.3184 N.ar    1  UNL1       -0.2478
     18 C         144.1024  143.7991  164.6314 C.3     1  UNL1        0.0499
     19 C         144.9271  142.6262  164.1908 C.3     1  UNL1        0.0774
     20 N         144.6889  142.0045  162.8466 N.3     1  UNL1       -0.2700
     21 C         144.7043  142.8571  161.6125 C.3     1  UNL1        0.0897
     22 C         144.4353  140.5302  162.7365 C.3     1  UNL1        0.0897
@<TRIPOS>BOND
     1    11    10    1
     2    11    12    1
     3    12    13   ar
     4    13    14   ar
     5    14    15   ar
     6    15    16   ar
     7    16    17   ar
     8    11     1    1
     9     1     2   ar
    10     2    18    1
    11    18    19    1
    12    19    20    1
    13    20    21    1
    14    20    22    1
    15     2     3   ar
    16     3     4   ar
    17     4     5   ar
    18     5     6   ar
    19     6     7   ar
    20     7     8   ar
    21     8     9   ar
    22    17    12   ar
    23     9     1   ar
    24     9     4   ar
@<TRIPOS>MOLECULE
*****
 22 24 0 0 0
SMALL
GASTEIGER

@<TRIPOS>ATOM
      1 C         141.4283  141.3045  165.6292 C.ar    1  UNL1       -0.0144
      2 C         141.0072  139.8670  165.7082 C.ar    1  UNL1        0.0051
      3 S         142.1478  139.0226  165.2224 S.2     1  UNL1       -0.0915
      4 C         143.2738  139.9382  164.8431 C.ar    1  UNL1        0.0288
      5 C         144.6465  139.6699  164.3013 C.ar    1  UNL1        0.0065
      6 C         145.5746  140.8120  164.0109 C.ar    1  UNL1        0.0005
      7 C         145.1299  142.2223  164.2624 C.ar    1  UNL1        0.0000
      8 C         143.7572  142.4906  164.8042 C.ar    1  UNL1        0.0002
      9 C         142.8291  141.3485  165.0946 C.ar    1  UNL1        0.0025
     10 C         140.4270  142.8478  167.4639 C.3     1  UNL1        0.0110
     11 C         140.5950  142.4900  166.0169 C.3     1  UNL1        0.0627
     12 C         139.9295  143.3176  164.9576 C.ar    1  UNL1        0.0627
     13 C         138.4537  143.1887  164.7219 C.ar    1  UNL1        0.0151
     14 C         137.7882  144.0163  163.6627 C.ar    1  UNL1        0.0028
     15 C         138.5985  144.9729  162.8390 C.ar    1  UNL1        0.0207
     16 C         140.0742  145.1018  163.0746 C.ar    1  UNL1        0.0985
     17 N         140.7397  144.2742  164.1339 N.ar    1  UNL1       -0.2478
     18 C         139.6788  139.3626  166.1887 C.3     1  UNL1        0.0499
     19 C         138.4617  139.5153  165.3254 C.3     1  UNL1        0.0774
     20 N         138.5040  139.0908  163.8874 N.3     1  UNL1       -0.2700
     21 C         138.9530  137.7055  163.5273 C.3     1  UNL1        0.0897
     22 C         138.0974  140.0513  162.8095 C.3     1  UNL1        0.0897
@<TRIPOS>BOND
     1    11    10    1
     2    11    12    1
     3    12    13   ar
     4    13    14   ar
     5    14    15   ar
     6    15    16   ar
     7    16    17   ar
     8    11     1    1
     9     1     2   ar
    10     2    18    1
    11    18    19    1
    12    19    20    1
    13    20    21    1
    14    20    22    1
    15     2     3   ar
    16     3     4   ar
    17     4     5   ar
    18     5     6   ar
    19     6     7   ar
    20     7     8   ar
    21     8     9   ar
    22    17    12   ar
    23     9     1   ar
    24     9     4   ar
@<TRIPOS>MOLECULE
*****
 22 24 0 0 0
SMALL
GASTEIGER

@<TRIPOS>ATOM
      1 C         139.7192  141.5610  165.0332 C.ar    1  UNL1       -0.0144
      2 C         138.5157  142.0697  164.2966 C.ar    1  UNL1        0.0051
      3 S         137.9162  140.9219  163.5396 S.2     1  UNL1       -0.0915
      4 C         138.7493  139.7038  163.8084 C.ar    1  UNL1        0.0288
      5 C         138.6371  138.2859  163.3319 C.ar    1  UNL1        0.0065
      6 C         139.6393  137.2631  163.7785 C.ar    1  UNL1        0.0005
      7 C         140.7536  137.6582  164.7016 C.ar    1  UNL1        0.0000
      8 C         140.8658  139.0760  165.1781 C.ar    1  UNL1        0.0002
      9 C         139.8636  140.0988  164.7315 C.ar    1  UNL1        0.0025
     10 C         140.3678  142.4307  167.3940 C.3     1  UNL1        0.0110
     11 C         140.6203  142.3722  165.9165 C.3     1  UNL1        0.0627
     12 C         141.7738  143.1247  165.3225 C.ar    1  UNL1        0.0627
     13 C         143.1809  142.7268  165.6569 C.ar    1  UNL1        0.0151
     14 C         144.3345  143.4794  165.0629 C.ar    1  UNL1        0.0028
     15 C         144.0810  144.6299  164.1344 C.ar    1  UNL1        0.0207
     16 C         142.6739  145.0279  163.8000 C.ar    1  UNL1        0.0985
     17 N         141.5203  144.2753  164.3941 N.ar    1  UNL1       -0.2478
     18 C         138.0018  143.4789  164.3139 C.3     1  UNL1        0.0499
     19 C         137.7234  144.1915  163.0237 C.3     1  UNL1        0.0774
     20 N         138.8532  144.5403  162.1006 N.3     1  UNL1       -0.2700
     21 C         139.4148  145.9312  162.0948 C.3     1  UNL1        0.0897
     22 C         139.4212  143.4983  161.1833 C.3     1  UNL1        0.0897
@<TRIPOS>BOND
     1    11    10    1
     2    11    12    1
     3    12    13   ar
     4    13    14   ar
     5    14    15   ar
     6    15    16   ar
     7    16    17   ar
     8    11     1    1
     9     1     2   ar
    10     2    18    1
    11    18    19    1
    12    19    20    1
    13    20    21    1
    14    20    22    1
    15     2     3   ar
    16     3     4   ar
    17     4     5   ar
    18     5     6   ar
    19     6     7   ar
    20     7     8   ar
    21     8     9   ar
    22    17    12   ar
    23     9     1   ar
    24     9     4   ar
@<TRIPOS>MOLECULE
*****
 22 24 0 0 0
SMALL
GASTEIGER

@<TRIPOS>ATOM
      1 C         141.7812  139.6138  166.8687 C.ar    1  UNL1       -0.0144
      2 C         140.4304  139.4395  166.2402 C.ar    1  UNL1        0.0051
      3 S         139.3937  139.8075  167.2600 S.2     1  UNL1       -0.0915
      4 C         140.1038  140.2093  168.5187 C.ar    1  UNL1        0.0288
      5 C         139.5975  140.6687  169.8538 C.ar    1  UNL1        0.0065
      6 C         140.5666  141.0084  170.9471 C.ar    1  UNL1        0.0005
      7 C         142.0422  140.8887  170.7053 C.ar    1  UNL1        0.0000
      8 C         142.5485  140.4293  169.3702 C.ar    1  UNL1        0.0002
      9 C         141.5793  140.0896  168.2769 C.ar    1  UNL1        0.0025
     10 C         143.7870  138.0350  166.3847 C.3     1  UNL1        0.0110
     11 C         143.1019  139.3574  166.2055 C.3     1  UNL1        0.0627
     12 C         143.7376  140.4233  165.3631 C.ar    1  UNL1        0.0627
     13 C         143.2670  141.8436  165.4695 C.ar    1  UNL1        0.0151
     14 C         143.9028  142.9095  164.6271 C.ar    1  UNL1        0.0028
     15 C         145.0091  142.5551  163.6782 C.ar    1  UNL1        0.0207
     16 C         145.4797  141.1348  163.5718 C.ar    1  UNL1        0.0985
     17 N         144.8440  140.0689  164.4142 N.ar    1  UNL1       -0.2478
     18 C         140.1632  138.9782  164.8382 C.3     1  UNL1        0.0499
     19 C         140.4388  139.8933  163.6821 C.3     1  UNL1        0.0774
     20 N         141.5780  139.6027  162.7506 N.3     1  UNL1       -0.2700
     21 C         142.1667  138.2242  162.6929 C.3     1  UNL1        0.0897
     22 C         142.1285  140.6905  161.8767 C.3     1  UNL1        0.0897
@<TRIPOS>BOND
     1    11    10    1
     2    11    12    1
     3    12    13   ar
     4    13    14   ar
     5    14    15   ar
     6    15    16   ar
     7    16    17   ar
     8    11     1    1
     9     1     2   ar
    10     2    18    1
    11    18    19    1
    12    19    20    1
    13    20    21    1
    14    20    22    1
    15     2     3   ar
    16     3     4   ar
    17     4     5   ar
    18     5     6   ar
    19     6     7   ar
    20     7     8   ar
    21     8     9   ar
    22    17    12   ar
    23     9     1   ar
    24     9     4   ar
@<TRIPOS>MOLECULE
*****
 22 24 0 0 0
SMALL
GASTEIGER

@<TRIPOS>ATOM
      1 C         142.5271  141.5505  165.9780 C.ar    1  UNL1       -0.0144
      2 C         142.0741  140.2453  165.3937 C.ar    1  UNL1        0.0051
      3 S         141.9949  139.2422  166.5061 S.2     1  UNL1       -0.0915
      4 C         142.3989  139.9273  167.7778 C.ar    1  UNL1        0.0288
      5 C         142.5097  139.4365  169.1909 C.ar    1  UNL1        0.0065
      6 C         142.9495  140.3723  170.2775 C.ar    1  UNL1        0.0005
      7 C         143.2784  141.7989  169.9511 C.ar    1  UNL1        0.0000
      8 C         143.1676  142.2898  168.5381 C.ar    1  UNL1        0.0002
      9 C         142.7278  141.3540  167.4514 C.ar    1  UNL1        0.0025
     10 C         144.1305  143.3610  165.0286 C.3     1  UNL1        0.0110
     11 C         142.7417  142.8279  165.2216 C.3     1  UNL1        0.0627
     12 C         141.5677  143.5722  164.6581 C.ar    1  UNL1        0.0627
     13 C         140.2369  143.5063  165.3472 C.ar    1  UNL1        0.0151
     14 C         139.0628  144.2506  164.7838 C.ar    1  UNL1        0.0028
     15 C         139.2195  145.0610  163.5312 C.ar    1  UNL1        0.0207
     16 C         140.5502  145.1269  162.8422 C.ar    1  UNL1        0.0985
     17 N         141.7243  144.3826  163.4056 N.ar    1  UNL1       -0.2478
     18 C         141.7562  139.9884  163.9505 C.3     1  UNL1        0.0499
     19 C         140.3883  140.2961  163.4175 C.3     1  UNL1        0.0774
     20 N         139.1911  139.5760  163.9636 N.3     1  UNL1       -0.2700
     21 C         138.3144  140.2432  164.9815 C.3     1  UNL1        0.0897
     22 C         138.8707  138.1887  163.4917 C.3     1  UNL1        0.0897
@<TRIPOS>BOND
     1    11    10    1
     2    11    12    1
     3    12    13   ar
     4    13    14   ar
     5    14    15   ar
     6    15    16   ar
     7    16    17   ar
     8    11     1    1
     9     1     2   ar
    10     2    18    1
    11    18    19    1
    12    19    20    1
    13    20    21    1
    14    20    22    1
    15     2     3   ar
    16     3     4   ar
    17     4     5   ar
    18     5     6   ar
    19     6     7   ar
    20     7     8   ar
    21     8     9   ar
    22    17    12   ar
    23     9     1   ar
    24     9     4   ar
@<TRIPOS>MOLECULE
*****
 22 24 0 0 0
SMALL
GASTEIGER

@<TRIPOS>ATOM
      1 C         142.6450  140.1475  165.0413 C.ar    1  UNL1       -0.0144
      2 C         141.8685  139.7243  163.8298 C.ar    1  UNL1        0.0051
      3 S         141.8675  140.8665  162.8575 S.2     1  UNL1       -0.0915
      4 C         142.6436  141.9956  163.4681 C.ar    1  UNL1        0.0288
      5 C         142.9747  143.3710  162.9695 C.ar    1  UNL1        0.0065
      6 C         143.7864  144.3020  163.8205 C.ar    1  UNL1        0.0005
      7 C         144.2669  143.8577  165.1702 C.ar    1  UNL1        0.0000
      8 C         143.9358  142.4823  165.6688 C.ar    1  UNL1        0.0002
      9 C         143.1241  141.5513  164.8178 C.ar    1  UNL1        0.0025
     10 C         143.9398  138.2344  166.2305 C.3     1  UNL1        0.0110
     11 C         142.8982  139.3135  166.2621 C.3     1  UNL1        0.0627
     12 C         142.1099  139.5583  167.5144 C.ar    1  UNL1        0.0627
     13 C         140.6969  140.0542  167.4264 C.ar    1  UNL1        0.0151
     14 C         139.9085  140.2991  168.6787 C.ar    1  UNL1        0.0028
     15 C         140.5330  140.0480  170.0193 C.ar    1  UNL1        0.0207
     16 C         141.9459  139.5521  170.1073 C.ar    1  UNL1        0.0985
     17 N         142.7343  139.3073  168.8550 N.ar    1  UNL1       -0.2478
     18 C         141.2086  138.3926  163.6264 C.3     1  UNL1        0.0499
     19 C         139.8066  138.1686  164.1101 C.3     1  UNL1        0.0774
     20 N         138.6796  138.9819  163.5460 N.3     1  UNL1       -0.2700
     21 C         138.1497  140.1599  164.3086 C.3     1  UNL1        0.0897
     22 C         138.0824  138.6173  162.2192 C.3     1  UNL1        0.0897
@<TRIPOS>BOND
     1    11    10    1
     2    11    12    1
     3    12    13   ar
     4    13    14   ar
     5    14    15   ar
     6    15    16   ar
     7    16    17   ar
     8    11     1    1
     9     1     2   ar
    10     2    18    1
    11    18    19    1
    12    19    20    1
    13    20    21    1
    14    20    22    1
    15     2     3   ar
    16     3     4   ar
    17     4     5   ar
    18     5     6   ar
    19     6     7   ar
    20     7     8   ar
    21     8     9   ar
    22    17    12   ar
    23     9     1   ar
    24     9     4   ar
@<TRIPOS>MOLECULE
*****
 22 24 0 0 0
SMALL
GASTEIGER

@<TRIPOS>ATOM
      1 C         140.3930  140.9210  166.6317 C.ar    1  UNL1       -0.0144
      2 C         139.2977  140.0224  167.1244 C.ar    1  UNL1        0.0051
      3 S         139.4331  139.9002  168.6133 S.2     1  UNL1       -0.0915
      4 C         140.6121  140.7231  169.0407 C.ar    1  UNL1        0.0288
      5 C         141.2221  140.9795  170.3868 C.ar    1  UNL1        0.0065
      6 C         142.4254  141.8668  170.5082 C.ar    1  UNL1        0.0005
      7 C         143.0187  142.4977  169.2834 C.ar    1  UNL1        0.0000
      8 C         142.4087  142.2413  167.9373 C.ar    1  UNL1        0.0002
      9 C         141.2054  141.3540  167.8159 C.ar    1  UNL1        0.0025
     10 C         141.7890  140.7307  164.4487 C.3     1  UNL1        0.0110
     11 C         140.6338  141.3169  165.2050 C.3     1  UNL1        0.0627
     12 C         139.7195  142.2990  164.5347 C.ar    1  UNL1        0.0627
     13 C         139.3111  143.5527  165.2501 C.ar    1  UNL1        0.0151
     14 C         138.3968  144.5349  164.5798 C.ar    1  UNL1        0.0028
     15 C         137.8908  144.2634  163.1941 C.ar    1  UNL1        0.0207
     16 C         138.2991  143.0098  162.4787 C.ar    1  UNL1        0.0985
     17 N         139.2134  142.0277  163.1490 N.ar    1  UNL1       -0.2478
     18 C         138.2508  139.3621  166.2772 C.3     1  UNL1        0.0499
     19 C         138.5089  138.0080  165.6857 C.3     1  UNL1        0.0774
     20 N         139.3323  137.8789  164.4386 N.3     1  UNL1       -0.2700
     21 C         138.8158  138.4221  163.1392 C.3     1  UNL1        0.0897
     22 C         140.6722  137.2067  164.4908 C.3     1  UNL1        0.0897
@<TRIPOS>BOND
     1    11    10    1
     2    11    12    1
     3    12    13   ar
     4    13    14   ar
     5    14    15   ar
     6    15    16   ar
     7    16    17   ar
     8    11     1    1
     9     1     2   ar
    10     2    18    1
    11    18    19    1
    12    19    20    1
    13    20    21    1
    14    20    22    1
    15     2     3   ar
    16     3     4   ar
    17     4     5   ar
    18     5     6   ar
    19     6     7   ar
    20     7     8   ar
    21     8     9   ar
    22    17    12   ar
    23     9     1   ar
    24     9     4   ar
