@<TRIPOS>MOLECULE
*****
 24 26 0 0 0
SMALL
GASTEIGER

@<TRIPOS>ATOM
      1 C         138.6206  138.7924  165.3574 C.ar    1  UNL1        0.0536
      2 C         139.4073  137.6165  164.8588 C.ar    1  UNL1        0.0042
      3 C         139.6567  137.4498  163.3891 C.ar    1  UNL1       -0.0028
      4 C         139.1194  138.4589  162.4180 C.ar    1  UNL1       -0.0061
      5 C         138.3327  139.6347  162.9165 C.ar    1  UNL1       -0.0028
      6 C         138.0833  139.8014  164.3863 C.ar    1  UNL1        0.0042
      7 N         140.5648  142.1389  169.1350 N.3     1  UNL1       -0.2711
      8 C         139.5843  141.2457  169.8354 C.3     1  UNL1        0.0939
      9 C         138.8531  140.1857  169.0661 C.3     1  UNL1        0.1110
     10 N         139.1024  140.0190  167.5964 N.am    1  UNL1       -0.2732
     11 C         138.3712  138.9591  166.8271 C.2     1  UNL1        0.2491
     12 O         137.3906  138.0658  167.5274 O.2     1  UNL1       -0.2699
     13 C         140.0830  140.9123  166.8960 C.3     1  UNL1        0.1110
     14 C         140.8142  141.9722  167.6654 C.3     1  UNL1        0.0939
     15 C         140.5944  144.4693  170.2831 C.3     1  UNL1        0.0173
     16 C         141.2961  143.1989  169.9044 C.3     1  UNL1        0.0577
     17 C         142.7289  142.9883  170.2949 C.3     1  UNL1        0.0173
     18 C         139.3688  138.2921  160.9482 C.3     1  UNL1        0.0991
     19 N         140.6633  138.7569  160.3497 N.3     1  UNL1       -0.2690
     20 C         140.6812  139.9394  159.4270 C.3     1  UNL1        0.0724
     21 C         141.9757  140.4041  158.8284 C.3     1  UNL1        0.0174
     22 C         143.2524  139.6864  159.1527 C.3     1  UNL1        0.0029
     23 C         143.2345  138.5040  160.0754 C.3     1  UNL1        0.0174
     24 C         141.9399  138.0392  160.6740 C.3     1  UNL1        0.0724
@<TRIPOS>BOND
     1    15    16    1
     2    16    17    1
     3    16     7    1
     4     7     8    1
     5     8     9    1
     6     9    10    1
     7    10    11   am
     8    11    12    2
     9    11     1    1
    10     1     2   ar
    11     2     3   ar
    12     3     4   ar
    13     4    18    1
    14    18    19    1
    15    19    20    1
    16    20    21    1
    17    21    22    1
    18    22    23    1
    19    23    24    1
    20     4     5   ar
    21     5     6   ar
    22    10    13    1
    23    13    14    1
    24    14     7    1
    25     6     1   ar
    26    24    19    1
@<TRIPOS>MOLECULE
*****
 24 26 0 0 0
SMALL
GASTEIGER

@<TRIPOS>ATOM
      1 C         138.5511  140.5550  164.4694 C.ar    1  UNL1        0.0536
      2 C         139.5534  141.5287  165.0147 C.ar    1  UNL1        0.0042
      3 C         140.0754  141.3646  166.4113 C.ar    1  UNL1       -0.0028
      4 C         139.5951  140.2268  167.2626 C.ar    1  UNL1       -0.0061
      5 C         138.5929  139.2531  166.7174 C.ar    1  UNL1       -0.0028
      6 C         138.0709  139.4172  165.3207 C.ar    1  UNL1        0.0042
      7 N         140.2251  138.8536  159.6162 N.3     1  UNL1       -0.2711
      8 C         138.9711  139.6396  159.3718 C.3     1  UNL1        0.0939
      9 C         138.2391  140.2614  160.5240 C.3     1  UNL1        0.1110
     10 N         138.7611  140.0973  161.9206 N.am    1  UNL1       -0.2732
     11 C         138.0291  140.7191  163.0728 C.2     1  UNL1        0.2491
     12 O         136.7752  141.5051  162.8283 O.2     1  UNL1       -0.2699
     13 C         140.0151  139.3113  162.1650 C.3     1  UNL1        0.1110
     14 C         140.7471  138.6895  161.0128 C.3     1  UNL1        0.0939
     15 C         142.4311  137.9725  158.5640 C.3     1  UNL1        0.0173
     16 C         140.9571  138.2318  158.4640 C.3     1  UNL1        0.0577
     17 C         140.2150  137.8692  157.2119 C.3     1  UNL1        0.0173
     18 C         140.1172  140.0627  168.6593 C.3     1  UNL1        0.0991
     19 N         141.0884  141.0594  169.2189 N.3     1  UNL1       -0.2690
     20 C         142.5480  140.7223  169.2966 C.3     1  UNL1        0.0724
     21 C         143.5192  141.7190  169.8562 C.3     1  UNL1        0.0174
     22 C         143.0309  143.0530  170.3381 C.3     1  UNL1        0.0029
     23 C         141.5713  143.3902  170.2604 C.3     1  UNL1        0.0174
     24 C         140.6001  142.3933  169.7007 C.3     1  UNL1        0.0724
@<TRIPOS>BOND
     1    15    16    1
     2    16    17    1
     3    16     7    1
     4     7     8    1
     5     8     9    1
     6     9    10    1
     7    10    11   am
     8    11    12    2
     9    11     1    1
    10     1     2   ar
    11     2     3   ar
    12     3     4   ar
    13     4    18    1
    14    18    19    1
    15    19    20    1
    16    20    21    1
    17    21    22    1
    18    22    23    1
    19    23    24    1
    20     4     5   ar
    21     5     6   ar
    22    10    13    1
    23    13    14    1
    24    14     7    1
    25     6     1   ar
    26    24    19    1
@<TRIPOS>MOLECULE
*****
 24 26 0 0 0
SMALL
GASTEIGER

@<TRIPOS>ATOM
      1 C         138.5291  138.9118  165.0893 C.ar    1  UNL1        0.0536
      2 C         137.9711  139.9597  164.1724 C.ar    1  UNL1        0.0042
      3 C         138.1161  139.8106  162.6869 C.ar    1  UNL1       -0.0028
      4 C         138.8189  138.6136  162.1183 C.ar    1  UNL1       -0.0061
      5 C         139.3768  137.5658  163.0351 C.ar    1  UNL1       -0.0028
      6 C         139.2319  137.7148  164.5207 C.ar    1  UNL1        0.0042
      7 N         141.2625  141.6507  168.8678 N.3     1  UNL1       -0.2711
      8 C         140.1581  140.9365  169.5889 C.3     1  UNL1        0.0939
      9 C         139.1986  140.0732  168.8246 C.3     1  UNL1        0.1110
     10 N         139.3436  139.9241  167.3391 N.am    1  UNL1       -0.2732
     11 C         138.3841  139.0608  166.5748 C.2     1  UNL1        0.2491
     12 O         137.2797  138.3466  167.2960 O.2     1  UNL1       -0.2699
     13 C         140.4480  140.6383  166.6180 C.3     1  UNL1        0.1110
     14 C         141.4074  141.5016  167.3823 C.3     1  UNL1        0.0939
     15 C         141.7259  143.7363  170.3461 C.3     1  UNL1        0.0173
     16 C         142.2219  142.5140  169.6321 C.3     1  UNL1        0.0577
     17 C         143.6774  142.1549  169.6824 C.3     1  UNL1        0.0173
     18 C         138.9639  138.4646  160.6327 C.3     1  UNL1        0.0991
     19 N         139.2948  139.6590  159.7878 N.3     1  UNL1       -0.2690
     20 C         140.6665  140.2631  159.8475 C.3     1  UNL1        0.0724
     21 C         140.9974  141.4575  159.0027 C.3     1  UNL1        0.0174
     22 C         139.9566  142.0479  158.0981 C.3     1  UNL1        0.0029
     23 C         138.5849  141.4439  158.0384 C.3     1  UNL1        0.0174
     24 C         138.2540  140.2494  158.8833 C.3     1  UNL1        0.0724
@<TRIPOS>BOND
     1    15    16    1
     2    16    17    1
     3    16     7    1
     4     7     8    1
     5     8     9    1
     6     9    10    1
     7    10    11   am
     8    11    12    2
     9    11     1    1
    10     1     2   ar
    11     2     3   ar
    12     3     4   ar
    13     4    18    1
    14    18    19    1
    15    19    20    1
    16    20    21    1
    17    21    22    1
    18    22    23    1
    19    23    24    1
    20     4     5   ar
    21     5     6   ar
    22    10    13    1
    23    13    14    1
    24    14     7    1
    25     6     1   ar
    26    24    19    1
@<TRIPOS>MOLECULE
*****
 24 26 0 0 0
SMALL
GASTEIGER

@<TRIPOS>ATOM
      1 C         139.9005  138.6993  164.3865 C.ar    1  UNL1        0.0536
      2 C         138.6310  138.3830  165.1202 C.ar    1  UNL1        0.0042
      3 C         138.4313  138.8784  166.5218 C.ar    1  UNL1       -0.0028
      4 C         139.5012  139.6902  167.1899 C.ar    1  UNL1       -0.0061
      5 C         140.7708  140.0065  166.4563 C.ar    1  UNL1       -0.0028
      6 C         140.9705  139.5110  165.0546 C.ar    1  UNL1        0.0042
      7 N         138.7117  140.6900  159.5005 N.3     1  UNL1       -0.2711
      8 C         139.3741  139.3659  159.2603 C.3     1  UNL1        0.0939
      9 C         139.8370  138.5371  160.4218 C.3     1  UNL1        0.1110
     10 N         139.6373  139.0326  161.8234 N.am    1  UNL1       -0.2732
     11 C         140.1002  138.2039  162.9849 C.2     1  UNL1        0.2491
     12 O         140.7626  136.8797  162.7447 O.2     1  UNL1       -0.2699
     13 C         138.9749  140.3567  162.0636 C.3     1  UNL1        0.1110
     14 C         138.5121  141.1855  160.9021 C.3     1  UNL1        0.0939
     15 C         137.2639  140.9531  157.3593 C.3     1  UNL1        0.0173
     16 C         138.2489  141.5188  158.3390 C.3     1  UNL1        0.0577
     17 C         138.7710  142.9131  158.1572 C.3     1  UNL1        0.0173
     18 C         139.3016  140.1856  168.5916 C.3     1  UNL1        0.0991
     19 N         140.3609  141.0182  169.2508 N.3     1  UNL1       -0.2690
     20 C         141.4896  140.3542  169.9822 C.3     1  UNL1        0.0724
     21 C         142.5489  141.1868  170.6414 C.3     1  UNL1        0.0174
     22 C         142.4795  142.6836  170.5693 C.3     1  UNL1        0.0029
     23 C         141.3507  143.3475  169.8378 C.3     1  UNL1        0.0174
     24 C         140.2914  142.5148  169.1786 C.3     1  UNL1        0.0724
@<TRIPOS>BOND
     1    15    16    1
     2    16    17    1
     3    16     7    1
     4     7     8    1
     5     8     9    1
     6     9    10    1
     7    10    11   am
     8    11    12    2
     9    11     1    1
    10     1     2   ar
    11     2     3   ar
    12     3     4   ar
    13     4    18    1
    14    18    19    1
    15    19    20    1
    16    20    21    1
    17    21    22    1
    18    22    23    1
    19    23    24    1
    20     4     5   ar
    21     5     6   ar
    22    10    13    1
    23    13    14    1
    24    14     7    1
    25     6     1   ar
    26    24    19    1
@<TRIPOS>MOLECULE
*****
 24 26 0 0 0
SMALL
GASTEIGER

@<TRIPOS>ATOM
      1 C         141.9524  138.8585  164.0553 C.ar    1  UNL1        0.0536
      2 C         143.2299  138.5264  164.7679 C.ar    1  UNL1        0.0042
      3 C         143.3641  138.8045  166.2358 C.ar    1  UNL1       -0.0028
      4 C         142.2209  139.4149  166.9911 C.ar    1  UNL1       -0.0061
      5 C         140.9435  139.7471  166.2786 C.ar    1  UNL1       -0.0028
      6 C         140.8092  139.4689  164.8107 C.ar    1  UNL1        0.0042
      7 N         143.2851  141.5924  159.5832 N.3     1  UNL1       -0.2711
      8 C         142.6619  140.3102  159.1168 C.3     1  UNL1        0.0939
      9 C         142.1729  139.3062  160.1183 C.3     1  UNL1        0.1110
     10 N         142.3071  139.5844  161.5861 N.am    1  UNL1       -0.2732
     11 C         141.8181  138.5804  162.5875 C.2     1  UNL1        0.2491
     12 O         141.1949  137.2982  162.1211 O.2     1  UNL1       -0.2699
     13 C         142.9303  140.8665  162.0525 C.3     1  UNL1        0.1110
     14 C         143.4193  141.8706  161.0510 C.3     1  UNL1        0.0939
     15 C         142.9270  143.7852  158.2367 C.3     1  UNL1        0.0173
     16 C         143.7740  142.5964  158.5818 C.3     1  UNL1        0.0577
     17 C         145.1100  142.4115  157.9254 C.3     1  UNL1        0.0173
     18 C         142.3552  139.6931  168.4590 C.3     1  UNL1        0.0991
     19 N         141.5640  140.8015  169.0877 N.3     1  UNL1       -0.2690
     20 C         142.1229  142.1929  169.1274 C.3     1  UNL1        0.0724
     21 C         141.3317  143.3013  169.7562 C.3     1  UNL1        0.0174
     22 C         139.9815  143.0184  170.3453 C.3     1  UNL1        0.0029
     23 C         139.4226  141.6270  170.3056 C.3     1  UNL1        0.0174
     24 C         140.2139  140.5185  169.6768 C.3     1  UNL1        0.0724
@<TRIPOS>BOND
     1    15    16    1
     2    16    17    1
     3    16     7    1
     4     7     8    1
     5     8     9    1
     6     9    10    1
     7    10    11   am
     8    11    12    2
     9    11     1    1
    10     1     2   ar
    11     2     3   ar
    12     3     4   ar
    13     4    18    1
    14    18    19    1
    15    19    20    1
    16    20    21    1
    17    21    22    1
    18    22    23    1
    19    23    24    1
    20     4     5   ar
    21     5     6   ar
    22    10    13    1
    23    13    14    1
    24    14     7    1
    25     6     1   ar
    26    24    19    1
@<TRIPOS>MOLECULE
*****
 24 26 0 0 0
SMALL
GASTEIGER

@<TRIPOS>ATOM
      1 C         143.9374  140.3260  164.0983 C.ar    1  UNL1        0.0536
      2 C         143.2350  141.3409  164.9507 C.ar    1  UNL1        0.0042
      3 C         142.7900  140.9777  166.3363 C.ar    1  UNL1       -0.0028
      4 C         143.0473  139.5996  166.8696 C.ar    1  UNL1       -0.0061
      5 C         143.7497  138.5846  166.0173 C.ar    1  UNL1       -0.0028
      6 C         144.1948  138.9478  164.6316 C.ar    1  UNL1        0.0042
      7 N         142.0994  139.1692  159.1451 N.3     1  UNL1       -0.2711
      8 C         143.3055  140.0390  158.9487 C.3     1  UNL1        0.0939
      9 C         144.0665  140.5457  160.1379 C.3     1  UNL1        0.1110
     10 N         143.6215  140.1825  161.5235 N.am    1  UNL1       -0.2732
     11 C         144.3825  140.6892  162.7127 C.2     1  UNL1        0.2491
     12 O         145.5886  141.5591  162.5162 O.2     1  UNL1       -0.2699
     13 C         142.4154  139.3126  161.7199 C.3     1  UNL1        0.1110
     14 C         141.6544  138.8059  160.5308 C.3     1  UNL1        0.0939
     15 C         139.8853  138.3148  158.0880 C.3     1  UNL1        0.0173
     16 C         141.3384  138.6625  157.9560 C.3     1  UNL1        0.0577
     17 C         142.0305  138.5035  156.6348 C.3     1  UNL1        0.0173
     18 C         142.6022  139.2364  168.2553 C.3     1  UNL1        0.0991
     19 N         141.8604  140.2369  169.0911 N.3     1  UNL1       -0.2690
     20 C         142.6169  141.1836  169.9751 C.3     1  UNL1        0.0724
     21 C         141.8752  142.1841  170.8110 C.3     1  UNL1        0.0174
     22 C         140.3768  142.2379  170.7629 C.3     1  UNL1        0.0029
     23 C         139.6204  141.2912  169.8789 C.3     1  UNL1        0.0174
     24 C         140.3622  140.2906  169.0430 C.3     1  UNL1        0.0724
@<TRIPOS>BOND
     1    15    16    1
     2    16    17    1
     3    16     7    1
     4     7     8    1
     5     8     9    1
     6     9    10    1
     7    10    11   am
     8    11    12    2
     9    11     1    1
    10     1     2   ar
    11     2     3   ar
    12     3     4   ar
    13     4    18    1
    14    18    19    1
    15    19    20    1
    16    20    21    1
    17    21    22    1
    18    22    23    1
    19    23    24    1
    20     4     5   ar
    21     5     6   ar
    22    10    13    1
    23    13    14    1
    24    14     7    1
    25     6     1   ar
    26    24    19    1
@<TRIPOS>MOLECULE
*****
 24 26 0 0 0
SMALL
GASTEIGER

@<TRIPOS>ATOM
      1 C         139.9840  144.3122  162.7991 C.ar    1  UNL1        0.0536
      2 C         141.1063  144.4416  163.7859 C.ar    1  UNL1        0.0042
      3 C         141.1120  143.6027  165.0294 C.ar    1  UNL1       -0.0028
      4 C         139.9956  142.6344  165.2860 C.ar    1  UNL1       -0.0061
      5 C         138.8734  142.5049  164.2993 C.ar    1  UNL1       -0.0028
      6 C         138.8675  143.3438  163.0557 C.ar    1  UNL1        0.0042
      7 N         142.2918  143.8202  157.9327 N.3     1  UNL1       -0.2711
      8 C         141.5148  145.1027  157.8969 C.3     1  UNL1        0.0939
      9 C         140.7436  145.5463  159.1046 C.3     1  UNL1        0.1110
     10 N         140.7494  144.7074  160.3480 N.am    1  UNL1       -0.2732
     11 C         139.9782  145.1511  161.5556 C.2     1  UNL1        0.2491
     12 O         139.2012  146.4336  161.5198 O.2     1  UNL1       -0.2699
     13 C         141.5264  143.4249  160.3838 C.3     1  UNL1        0.1110
     14 C         142.2976  142.9813  159.1761 C.3     1  UNL1        0.0939
     15 C         142.7556  143.9661  155.3805 C.3     1  UNL1        0.0173
     16 C         143.0631  143.3765  156.7251 C.3     1  UNL1        0.0577
     17 C         144.1417  142.3433  156.8619 C.3     1  UNL1        0.0173
     18 C         140.0014  141.7955  166.5296 C.3     1  UNL1        0.0991
     19 N         140.8965  142.1607  167.6765 N.3     1  UNL1       -0.2690
     20 C         140.3868  143.0493  168.7721 C.3     1  UNL1        0.0724
     21 C         141.2819  143.4146  169.9190 C.3     1  UNL1        0.0174
     22 C         142.6867  142.8911  169.9703 C.3     1  UNL1        0.0029
     23 C         143.1964  142.0025  168.8746 C.3     1  UNL1        0.0174
     24 C         142.3012  141.6373  167.7277 C.3     1  UNL1        0.0724
@<TRIPOS>BOND
     1    15    16    1
     2    16    17    1
     3    16     7    1
     4     7     8    1
     5     8     9    1
     6     9    10    1
     7    10    11   am
     8    11    12    2
     9    11     1    1
    10     1     2   ar
    11     2     3   ar
    12     3     4   ar
    13     4    18    1
    14    18    19    1
    15    19    20    1
    16    20    21    1
    17    21    22    1
    18    22    23    1
    19    23    24    1
    20     4     5   ar
    21     5     6   ar
    22    10    13    1
    23    13    14    1
    24    14     7    1
    25     6     1   ar
    26    24    19    1
@<TRIPOS>MOLECULE
*****
 24 26 0 0 0
SMALL
GASTEIGER

@<TRIPOS>ATOM
      1 C         139.9483  139.2556  163.8425 C.ar    1  UNL1        0.0536
      2 C         141.1064  139.2930  164.7951 C.ar    1  UNL1        0.0042
      3 C         140.8655  139.5020  166.2608 C.ar    1  UNL1       -0.0028
      4 C         139.4665  139.6735  166.7739 C.ar    1  UNL1       -0.0061
      5 C         138.3084  139.6361  165.8214 C.ar    1  UNL1       -0.0028
      6 C         138.5493  139.4271  164.3556 C.ar    1  UNL1        0.0042
      7 N         141.3377  142.5276  159.7666 N.3     1  UNL1       -0.2711
      8 C         141.1958  141.1583  159.1710 C.3     1  UNL1        0.0939
      9 C         140.8130  139.9979  160.0411 C.3     1  UNL1        0.1110
     10 N         140.5721  140.2069  161.5067 N.am    1  UNL1       -0.2732
     11 C         140.1892  139.0466  162.3768 C.2     1  UNL1        0.2491
     12 O         140.0474  137.6773  161.7812 O.2     1  UNL1       -0.2699
     13 C         140.7139  141.5763  162.1023 C.3     1  UNL1        0.1110
     14 C         141.0968  142.7366  161.2322 C.3     1  UNL1        0.0939
     15 C         142.9785  143.6314  158.0815 C.3     1  UNL1        0.0173
     16 C         141.7205  143.6880  158.8965 C.3     1  UNL1        0.0577
     17 C         140.8453  144.9049  158.8413 C.3     1  UNL1        0.0173
     18 C         139.2256  139.8825  168.2397 C.3     1  UNL1        0.0991
     19 N         140.2277  140.6341  169.0648 N.3     1  UNL1       -0.2690
     20 C         140.3381  142.1245  168.9365 C.3     1  UNL1        0.0724
     21 C         141.3402  142.8761  169.7616 C.3     1  UNL1        0.0174
     22 C         142.2320  142.1372  170.7150 C.3     1  UNL1        0.0029
     23 C         142.1216  140.6468  170.8432 C.3     1  UNL1        0.0174
     24 C         141.1194  139.8952  170.0181 C.3     1  UNL1        0.0724
@<TRIPOS>BOND
     1    15    16    1
     2    16    17    1
     3    16     7    1
     4     7     8    1
     5     8     9    1
     6     9    10    1
     7    10    11   am
     8    11    12    2
     9    11     1    1
    10     1     2   ar
    11     2     3   ar
    12     3     4   ar
    13     4    18    1
    14    18    19    1
    15    19    20    1
    16    20    21    1
    17    21    22    1
    18    22    23    1
    19    23    24    1
    20     4     5   ar
    21     5     6   ar
    22    10    13    1
    23    13    14    1
    24    14     7    1
    25     6     1   ar
    26    24    19    1
@<TRIPOS>MOLECULE
*****
 24 26 0 0 0
SMALL
GASTEIGER

@<TRIPOS>ATOM
      1 C         140.1996  138.5034  158.1900 C.ar    1  UNL1        0.0536
      2 C         139.7021  137.6602  157.0535 C.ar    1  UNL1        0.0042
      3 C         140.6518  136.7700  156.3083 C.ar    1  UNL1       -0.0028
      4 C         142.0991  136.7229  156.6994 C.ar    1  UNL1       -0.0061
      5 C         142.5967  137.5660  157.8358 C.ar    1  UNL1       -0.0028
      6 C         141.6470  138.4563  158.5812 C.ar    1  UNL1        0.0042
      7 N         138.7149  138.8967  163.3756 N.3     1  UNL1       -0.2711
      8 C         137.9435  139.9526  162.6408 C.3     1  UNL1        0.0939
      9 C         138.1218  140.1182  161.1607 C.3     1  UNL1        0.1110
     10 N         139.0716  139.2280  160.4154 N.am    1  UNL1       -0.2732
     11 C         139.2499  139.3936  158.9353 C.2     1  UNL1        0.2491
     12 O         138.4785  140.4495  158.2004 O.2     1  UNL1       -0.2699
     13 C         139.8430  138.1721  161.1503 C.3     1  UNL1        0.1110
     14 C         139.6646  138.0065  162.6304 C.3     1  UNL1        0.0939
     15 C         138.6753  137.3746  165.4808 C.3     1  UNL1        0.0173
     16 C         138.5366  138.7311  164.8558 C.3     1  UNL1        0.0577
     17 C         138.2195  139.9219  165.7109 C.3     1  UNL1        0.0173
     18 C         143.0489  135.8326  155.9541 C.3     1  UNL1        0.0991
     19 N         142.9745  134.3445  156.1274 N.3     1  UNL1       -0.2690
     20 C         143.9628  133.6419  157.0104 C.3     1  UNL1        0.0724
     21 C         143.8884  132.1539  157.1837 C.3     1  UNL1        0.0174
     22 C         142.8257  131.3683  156.4739 C.3     1  UNL1        0.0029
     23 C         141.8375  132.0709  155.5909 C.3     1  UNL1        0.0174
     24 C         141.9119  133.5590  155.4177 C.3     1  UNL1        0.0724
@<TRIPOS>BOND
     1    15    16    1
     2    16    17    1
     3    16     7    1
     4     7     8    1
     5     8     9    1
     6     9    10    1
     7    10    11   am
     8    11    12    2
     9    11     1    1
    10     1     2   ar
    11     2     3   ar
    12     3     4   ar
    13     4    18    1
    14    18    19    1
    15    19    20    1
    16    20    21    1
    17    21    22    1
    18    22    23    1
    19    23    24    1
    20     4     5   ar
    21     5     6   ar
    22    10    13    1
    23    13    14    1
    24    14     7    1
    25     6     1   ar
    26    24    19    1
