@<TRIPOS>MOLECULE
*****
 36 40 0 0 0
SMALL
GASTEIGER

@<TRIPOS>ATOM
      1 N         142.7799  144.3451  162.5163 N.3     1  UNL1       -0.2689
      2 C         142.0957  144.7413  163.7911 C.3     1  UNL1        0.0737
      3 C         140.6237  145.0296  163.7940 C.3     1  UNL1        0.0356
      4 C         139.8359  144.9218  162.5222 C.3     1  UNL1        0.0846
      5 C         140.5200  144.5256  161.2474 C.3     1  UNL1        0.1455
      6 C         141.9920  144.2373  161.2445 C.3     1  UNL1        0.1034
      7 N         138.3638  145.2102  162.5251 N.3     1  UNL1       -0.2915
      8 H         138.0829  145.3175  161.5504 H       1  UNL1        0.1236
      9 C         137.4095  144.2334  163.1457 C.3     1  UNL1        0.1153
     10 C         137.6772  142.7605  163.0520 C.ar    1  UNL1        0.0782
     11 C         137.9036  141.9585  164.2993 C.ar    1  UNL1        0.0562
     12 C         138.1714  140.4856  164.2056 C.ar    1  UNL1        0.1752
     13 C         138.2128  139.8146  162.8646 C.ar    1  UNL1        0.1914
     14 C         137.9864  140.6166  161.6174 C.ar    1  UNL1        0.1384
     15 N         137.7186  142.0896  161.7111 N.ar    1  UNL1       -0.2434
     16 O         138.4805  138.3417  162.7709 O.3     1  UNL1       -0.4668
     17 C         138.7070  137.5397  164.0182 C.3     1  UNL1        0.2527
     18 C         138.6656  138.2107  165.3591 C.3     1  UNL1        0.2526
     19 O         138.3978  139.6837  165.4528 O.3     1  UNL1       -0.4683
     20 O         139.7321  144.4178  159.9756 O.3     1  UNL1       -0.3508
     21 C         140.4032  144.6549  158.6552 C.3     1  UNL1        0.1741
     22 C         144.2519  144.0568  162.5135 C.3     1  UNL1        0.0970
     23 C         144.7616  142.7518  163.0493 C.3     1  UNL1        0.1264
     24 C         143.1644  141.8999  167.1692 C.ar    1  UNL1        0.1403
     25 C         142.2176  140.7567  167.3849 C.ar    1  UNL1        0.0385
     26 C         141.8032  139.8974  166.2274 C.ar    1  UNL1        0.0237
     27 C         142.3356  140.1813  164.8541 C.ar    1  UNL1        0.0975
     28 N         141.9211  139.3220  163.6966 N.ar    1  UNL1       -0.2374
     29 C         142.4535  139.6060  162.3233 C.ar    1  UNL1        0.1594
     30 C         143.4004  140.7493  162.1075 C.ar    1  UNL1        0.2803
     31 O         143.9328  141.0332  160.7342 O.2     1  UNL1       -0.2653
     32 N         143.8148  141.6085  163.2650 N.ar    1  UNL1       -0.2913
     33 C         143.2824  141.3245  164.6384 C.ar    1  UNL1        0.0832
     34 C         143.6968  142.1838  165.7959 C.ar    1  UNL1        0.0557
     35 C         143.6707  142.1700  169.7031 C.3     1  UNL1        0.2525
     36 O         143.5788  142.7592  168.3267 O.3     1  UNL1       -0.4714
@<TRIPOS>BOND
     1    35    36    1
     2    36    24    1
     3    24    25   ar
     4    25    26   ar
     5    26    27   ar
     6    27    28   ar
     7    28    29   ar
     8    29    30   ar
     9    30    31    2
    10    30    32   ar
    11    32    23    1
    12    23    22    1
    13    22     1    1
    14     1     2    1
    15     2     3    1
    16     3     4    1
    17     4     7    1
    18     7     9    1
    19     9    10    1
    20    10    11   ar
    21    11    12   ar
    22    12    13   ar
    23    13    14   ar
    24    14    15   ar
    25    13    16    1
    26    16    17    1
    27    17    18    1
    28    18    19    1
    29     4     5    1
    30     5    20    1
    31    20    21    1
    32     5     6    1
    33    32    33   ar
    34    33    34   ar
    35    34    24   ar
    36    33    27   ar
    37     6     1    1
    38    15    10   ar
    39    19    12    1
    40     7     8    1
@<TRIPOS>MOLECULE
*****
 36 40 0 0 0
SMALL
GASTEIGER

@<TRIPOS>ATOM
      1 N         138.0534  140.0480  162.4290 N.3     1  UNL1       -0.2689
      2 C         137.7542  140.7668  163.7110 C.3     1  UNL1        0.0737
      3 C         137.6479  142.2630  163.7248 C.3     1  UNL1        0.0356
      4 C         137.8409  143.0402  162.4566 C.3     1  UNL1        0.0846
      5 C         138.1402  142.3214  161.1745 C.3     1  UNL1        0.1455
      6 C         138.2464  140.8252  161.1607 C.3     1  UNL1        0.1034
      7 N         137.7347  144.5365  162.4703 N.3     1  UNL1       -0.2915
      8 H         137.0444  144.7761  163.1819 H       1  UNL1        0.1236
      9 C         138.9494  145.3721  162.7466 C.3     1  UNL1        0.1153
     10 C         140.3155  144.7573  162.6717 C.ar    1  UNL1        0.0782
     11 C         140.9839  144.2607  163.9193 C.ar    1  UNL1        0.0562
     12 C         142.3501  143.6459  163.8445 C.ar    1  UNL1        0.1752
     13 C         143.0479  143.5276  162.5219 C.ar    1  UNL1        0.1914
     14 C         142.3794  144.0242  161.2742 C.ar    1  UNL1        0.1384
     15 N         141.0132  144.6390  161.3491 N.ar    1  UNL1       -0.2434
     16 O         144.4140  142.9128  162.4470 O.3     1  UNL1       -0.4668
     17 C         145.0824  142.4163  163.6947 C.3     1  UNL1        0.2527
     18 C         144.3847  142.5346  165.0172 C.3     1  UNL1        0.2526
     19 O         143.0185  143.1494  165.0921 O.3     1  UNL1       -0.4683
     20 O         138.3332  143.0987  159.9062 O.3     1  UNL1       -0.3508
     21 C         138.6497  142.3811  158.6275 C.3     1  UNL1        0.1741
     22 C         138.1597  138.5517  162.4152 C.3     1  UNL1        0.0970
     23 C         138.9350  137.8451  163.4873 C.3     1  UNL1        0.1264
     24 C         139.9217  139.6115  167.5068 C.ar    1  UNL1        0.1403
     25 C         141.3278  140.0321  167.8164 C.ar    1  UNL1        0.0385
     26 C         142.4051  139.8639  166.7862 C.ar    1  UNL1        0.0237
     27 C         142.0762  139.2751  165.4464 C.ar    1  UNL1        0.0975
     28 N         143.1534  139.1068  164.4163 N.ar    1  UNL1       -0.2374
     29 C         142.8246  138.5180  163.0765 C.ar    1  UNL1        0.1594
     30 C         141.4184  138.0974  162.7668 C.ar    1  UNL1        0.2803
     31 O         141.0895  137.5086  161.4270 O.2     1  UNL1       -0.2653
     32 N         140.3411  138.2656  163.7970 N.ar    1  UNL1       -0.2913
     33 C         140.6701  138.8545  165.1368 C.ar    1  UNL1        0.0832
     34 C         139.5928  139.0227  166.1670 C.ar    1  UNL1        0.0557
     35 C         139.1484  140.4686  169.8343 C.3     1  UNL1        0.2525
     36 O         138.8445  139.7798  168.5369 O.3     1  UNL1       -0.4714
@<TRIPOS>BOND
     1    35    36    1
     2    36    24    1
     3    24    25   ar
     4    25    26   ar
     5    26    27   ar
     6    27    28   ar
     7    28    29   ar
     8    29    30   ar
     9    30    31    2
    10    30    32   ar
    11    32    23    1
    12    23    22    1
    13    22     1    1
    14     1     2    1
    15     2     3    1
    16     3     4    1
    17     4     7    1
    18     7     9    1
    19     9    10    1
    20    10    11   ar
    21    11    12   ar
    22    12    13   ar
    23    13    14   ar
    24    14    15   ar
    25    13    16    1
    26    16    17    1
    27    17    18    1
    28    18    19    1
    29     4     5    1
    30     5    20    1
    31    20    21    1
    32     5     6    1
    33    32    33   ar
    34    33    34   ar
    35    34    24   ar
    36    33    27   ar
    37     6     1    1
    38    15    10   ar
    39    19    12    1
    40     7     8    1
@<TRIPOS>MOLECULE
*****
 36 40 0 0 0
SMALL
GASTEIGER

@<TRIPOS>ATOM
      1 N         137.8682  142.8499  163.3265 N.3     1  UNL1       -0.2689
      2 C         137.8617  142.5717  161.8525 C.3     1  UNL1        0.0737
      3 C         137.9040  141.1570  161.3560 C.3     1  UNL1        0.0356
      4 C         137.9527  140.0203  162.3335 C.3     1  UNL1        0.0846
      5 C         137.9592  140.2984  163.8075 C.3     1  UNL1        0.1455
      6 C         137.9169  141.7132  164.3040 C.3     1  UNL1        0.1034
      7 N         137.9950  138.6054  161.8371 N.3     1  UNL1       -0.2915
      8 H         137.3814  138.5603  161.0236 H       1  UNL1        0.1236
      9 C         139.3018  137.9928  161.4283 C.3     1  UNL1        0.1153
     10 C         140.5387  138.2567  162.2346 C.ar    1  UNL1        0.0782
     11 C         141.5440  139.2630  161.7583 C.ar    1  UNL1        0.0562
     12 C         142.7809  139.5270  162.5647 C.ar    1  UNL1        0.1752
     13 C         143.0126  138.7846  163.8474 C.ar    1  UNL1        0.1914
     14 C         142.0074  137.7783  164.3237 C.ar    1  UNL1        0.1384
     15 N         140.7704  137.5144  163.5173 N.ar    1  UNL1       -0.2434
     16 O         144.2496  139.0486  164.6538 O.3     1  UNL1       -0.4668
     17 C         145.2548  140.0548  164.1775 C.3     1  UNL1        0.2527
     18 C         145.0232  140.7972  162.8949 C.3     1  UNL1        0.2526
     19 O         143.7862  140.5332  162.0884 O.3     1  UNL1       -0.4683
     20 O         138.0079  139.1616  164.7850 O.3     1  UNL1       -0.3508
     21 C         138.5086  139.3929  166.1799 C.3     1  UNL1        0.1741
     22 C         137.8259  144.2647  163.8230 C.3     1  UNL1        0.0970
     23 C         138.9239  144.7838  164.7034 C.3     1  UNL1        0.1264
     24 C         141.1164  141.9973  167.4744 C.ar    1  UNL1        0.1403
     25 C         142.5423  141.6274  167.1920 C.ar    1  UNL1        0.0385
     26 C         143.2374  142.1862  165.9860 C.ar    1  UNL1        0.0237
     27 C         142.5066  143.1150  165.0623 C.ar    1  UNL1        0.0975
     28 N         143.2017  143.6738  163.8563 N.ar    1  UNL1       -0.2374
     29 C         142.4709  144.6026  162.9326 C.ar    1  UNL1        0.1594
     30 C         141.0449  144.9726  163.2149 C.ar    1  UNL1        0.2803
     31 O         140.3141  145.9014  162.2913 O.2     1  UNL1       -0.2653
     32 N         140.3498  144.4138  164.4210 N.ar    1  UNL1       -0.2913
     33 C         141.0807  143.4849  165.3447 C.ar    1  UNL1        0.0832
     34 C         140.3856  142.9261  166.5507 C.ar    1  UNL1        0.0557
     35 C         140.7157  140.0397  169.1348 C.3     1  UNL1        0.2525
     36 O         140.4213  141.4385  168.6804 O.3     1  UNL1       -0.4714
@<TRIPOS>BOND
     1    35    36    1
     2    36    24    1
     3    24    25   ar
     4    25    26   ar
     5    26    27   ar
     6    27    28   ar
     7    28    29   ar
     8    29    30   ar
     9    30    31    2
    10    30    32   ar
    11    32    23    1
    12    23    22    1
    13    22     1    1
    14     1     2    1
    15     2     3    1
    16     3     4    1
    17     4     7    1
    18     7     9    1
    19     9    10    1
    20    10    11   ar
    21    11    12   ar
    22    12    13   ar
    23    13    14   ar
    24    14    15   ar
    25    13    16    1
    26    16    17    1
    27    17    18    1
    28    18    19    1
    29     4     5    1
    30     5    20    1
    31    20    21    1
    32     5     6    1
    33    32    33   ar
    34    33    34   ar
    35    34    24   ar
    36    33    27   ar
    37     6     1    1
    38    15    10   ar
    39    19    12    1
    40     7     8    1
@<TRIPOS>MOLECULE
*****
 36 40 0 0 0
SMALL
GASTEIGER

@<TRIPOS>ATOM
      1 N         142.7158  144.1894  163.1661 N.3     1  UNL1       -0.2689
      2 C         142.5603  143.5168  161.8343 C.3     1  UNL1        0.0737
      3 C         141.1970  143.3564  161.2297 C.3     1  UNL1        0.0356
      4 C         139.9891  143.8687  161.9568 C.3     1  UNL1        0.0846
      5 C         140.1446  144.5412  163.2885 C.3     1  UNL1        0.1455
      6 C         141.5079  144.7016  163.8932 C.3     1  UNL1        0.1034
      7 N         138.6257  143.7083  161.3522 N.3     1  UNL1       -0.2915
      8 H         138.5671  144.3702  160.5783 H       1  UNL1        0.1236
      9 C         138.1954  142.3753  160.8155 C.3     1  UNL1        0.1153
     10 C         138.3687  141.1400  161.6485 C.ar    1  UNL1        0.0782
     11 C         138.0562  141.1744  163.1152 C.ar    1  UNL1        0.0562
     12 C         138.2295  139.9391  163.9481 C.ar    1  UNL1        0.1752
     13 C         138.7154  138.6693  163.3144 C.ar    1  UNL1        0.1914
     14 C         139.0279  138.6349  161.8477 C.ar    1  UNL1        0.1384
     15 N         138.8546  139.8703  161.0148 N.ar    1  UNL1       -0.2434
     16 O         138.8888  137.4339  164.1474 O.3     1  UNL1       -0.4668
     17 C         138.5762  137.4684  165.6141 C.3     1  UNL1        0.2527
     18 C         138.0904  138.7381  166.2478 C.3     1  UNL1        0.2526
     19 O         137.9170  139.9735  165.4148 O.3     1  UNL1       -0.4683
     20 O         138.9367  145.0535  164.0156 O.3     1  UNL1       -0.3508
     21 C         138.7598  144.7597  165.4759 C.3     1  UNL1        0.1741
     22 C         144.0792  144.3497  163.7707 C.3     1  UNL1        0.0970
     23 C         144.4793  143.5145  164.9506 C.3     1  UNL1        0.1264
     24 C         141.2727  141.7554  167.5723 C.ar    1  UNL1        0.1403
     25 C         141.0240  140.2763  167.5630 C.ar    1  UNL1        0.0385
     26 C         141.8442  139.3834  166.6798 C.ar    1  UNL1        0.0237
     27 C         142.9131  139.9697  165.8059 C.ar    1  UNL1        0.0975
     28 N         143.7333  139.0768  164.9226 N.ar    1  UNL1       -0.2374
     29 C         144.8021  139.6632  164.0487 C.ar    1  UNL1        0.1594
     30 C         145.0508  141.1424  164.0580 C.ar    1  UNL1        0.2803
     31 O         146.1197  141.7287  163.1841 O.2     1  UNL1       -0.2653
     32 N         144.2306  142.0353  164.9413 N.ar    1  UNL1       -0.2913
     33 C         143.1617  141.4489  165.8152 C.ar    1  UNL1        0.0832
     34 C         142.3416  142.3418  166.6984 C.ar    1  UNL1        0.0557
     35 C         141.0708  143.2749  169.6700 C.3     1  UNL1        0.2525
     36 O         140.4525  142.6483  168.4555 O.3     1  UNL1       -0.4714
@<TRIPOS>BOND
     1    35    36    1
     2    36    24    1
     3    24    25   ar
     4    25    26   ar
     5    26    27   ar
     6    27    28   ar
     7    28    29   ar
     8    29    30   ar
     9    30    31    2
    10    30    32   ar
    11    32    23    1
    12    23    22    1
    13    22     1    1
    14     1     2    1
    15     2     3    1
    16     3     4    1
    17     4     7    1
    18     7     9    1
    19     9    10    1
    20    10    11   ar
    21    11    12   ar
    22    12    13   ar
    23    13    14   ar
    24    14    15   ar
    25    13    16    1
    26    16    17    1
    27    17    18    1
    28    18    19    1
    29     4     5    1
    30     5    20    1
    31    20    21    1
    32     5     6    1
    33    32    33   ar
    34    33    34   ar
    35    34    24   ar
    36    33    27   ar
    37     6     1    1
    38    15    10   ar
    39    19    12    1
    40     7     8    1
@<TRIPOS>MOLECULE
*****
 36 40 0 0 0
SMALL
GASTEIGER

@<TRIPOS>ATOM
      1 N         142.9988  144.2649  162.4229 N.3     1  UNL1       -0.2689
      2 C         142.3267  145.0130  163.5358 C.3     1  UNL1        0.0737
      3 C         140.8564  145.3009  163.4653 C.3     1  UNL1        0.0356
      4 C         140.0580  144.8407  162.2817 C.3     1  UNL1        0.0846
      5 C         140.7301  144.0926  161.1688 C.3     1  UNL1        0.1455
      6 C         142.2005  143.8048  161.2393 C.3     1  UNL1        0.1034
      7 N         138.5875  145.1286  162.2111 N.3     1  UNL1       -0.2915
      8 H         138.3119  145.0155  161.2356 H       1  UNL1        0.1236
      9 C         137.6249  144.3203  163.0297 C.3     1  UNL1        0.1153
     10 C         137.8280  142.8421  163.1832 C.ar    1  UNL1        0.0782
     11 C         138.1946  142.2704  164.5206 C.ar    1  UNL1        0.0562
     12 C         138.3977  140.7921  164.6742 C.ar    1  UNL1        0.1752
     13 C         138.2342  139.8856  163.4903 C.ar    1  UNL1        0.1914
     14 C         137.8676  140.4574  162.1528 C.ar    1  UNL1        0.1384
     15 N         137.6645  141.9357  161.9993 N.ar    1  UNL1       -0.2434
     16 O         138.4373  138.4074  163.6438 O.3     1  UNL1       -0.4668
     17 C         138.8038  137.8357  164.9812 C.3     1  UNL1        0.2527
     18 C         138.9673  138.7421  166.1651 C.3     1  UNL1        0.2526
     19 O         138.7642  140.2204  166.0116 O.3     1  UNL1       -0.4683
     20 O         139.9316  143.6324  159.9852 O.3     1  UNL1       -0.3508
     21 C         140.0298  144.3689  158.6821 C.3     1  UNL1        0.1741
     22 C         144.4693  143.9771  162.4935 C.3     1  UNL1        0.0970
     23 C         144.9483  142.6202  162.9172 C.3     1  UNL1        0.1264
     24 C         143.2754  139.0050  160.8241 C.ar    1  UNL1        0.1403
     25 C         142.3501  138.0770  161.5540 C.ar    1  UNL1        0.0385
     26 C         141.9825  138.3542  162.9816 C.ar    1  UNL1        0.0237
     27 C         142.5401  139.5593  163.6793 C.ar    1  UNL1        0.0975
     28 N         142.1725  139.8364  165.1069 N.ar    1  UNL1       -0.2374
     29 C         142.7301  141.0415  165.8046 C.ar    1  UNL1        0.1594
     30 C         143.6554  141.9695  165.0747 C.ar    1  UNL1        0.2803
     31 O         144.2131  143.1745  165.7724 O.2     1  UNL1       -0.2653
     32 N         144.0231  141.6923  163.6471 N.ar    1  UNL1       -0.2913
     33 C         143.4654  140.4872  162.9494 C.ar    1  UNL1        0.0832
     34 C         143.8330  140.2100  161.5218 C.ar    1  UNL1        0.0557
     35 C         142.6563  138.0624  158.4835 C.3     1  UNL1        0.2525
     36 O         143.6430  138.7278  159.3965 O.3     1  UNL1       -0.4714
@<TRIPOS>BOND
     1    35    36    1
     2    36    24    1
     3    24    25   ar
     4    25    26   ar
     5    26    27   ar
     6    27    28   ar
     7    28    29   ar
     8    29    30   ar
     9    30    31    2
    10    30    32   ar
    11    32    23    1
    12    23    22    1
    13    22     1    1
    14     1     2    1
    15     2     3    1
    16     3     4    1
    17     4     7    1
    18     7     9    1
    19     9    10    1
    20    10    11   ar
    21    11    12   ar
    22    12    13   ar
    23    13    14   ar
    24    14    15   ar
    25    13    16    1
    26    16    17    1
    27    17    18    1
    28    18    19    1
    29     4     5    1
    30     5    20    1
    31    20    21    1
    32     5     6    1
    33    32    33   ar
    34    33    34   ar
    35    34    24   ar
    36    33    27   ar
    37     6     1    1
    38    15    10   ar
    39    19    12    1
    40     7     8    1
@<TRIPOS>MOLECULE
*****
 36 40 0 0 0
SMALL
GASTEIGER

@<TRIPOS>ATOM
      1 N         142.0326  138.0057  163.9028 N.3     1  UNL1       -0.2689
      2 C         142.8973  138.4620  165.0404 C.3     1  UNL1        0.0737
      3 C         144.0960  139.3230  164.7729 C.3     1  UNL1        0.0356
      4 C         144.4301  139.7277  163.3677 C.3     1  UNL1        0.0846
      5 C         143.5655  139.2714  162.2301 C.3     1  UNL1        0.1455
      6 C         142.3668  138.4104  162.4976 C.3     1  UNL1        0.1034
      7 N         145.6289  140.5888  163.1001 N.3     1  UNL1       -0.2915
      8 H         145.7784  140.5800  162.0911 H       1  UNL1        0.1236
      9 C         145.6291  142.0272  163.5254 C.3     1  UNL1        0.1153
     10 C         144.4225  142.8829  163.2772 C.ar    1  UNL1        0.0782
     11 C         143.9723  143.1552  161.8725 C.ar    1  UNL1        0.0562
     12 C         142.7656  144.0109  161.6242 C.ar    1  UNL1        0.1752
     13 C         142.0090  144.5943  162.7807 C.ar    1  UNL1        0.1914
     14 C         142.4593  144.3220  164.1854 C.ar    1  UNL1        0.1384
     15 N         143.6660  143.4663  164.4336 N.ar    1  UNL1       -0.2434
     16 O         140.8024  145.4500  162.5324 O.3     1  UNL1       -0.4668
     17 C         140.3521  145.7223  161.1278 C.3     1  UNL1        0.2527
     18 C         141.1086  145.1389  159.9713 C.3     1  UNL1        0.2526
     19 O         142.3154  144.2832  160.2195 O.3     1  UNL1       -0.4683
     20 O         143.8997  139.6761  160.8248 O.3     1  UNL1       -0.3508
     21 C         142.8236  140.1954  159.9179 C.3     1  UNL1        0.1741
     22 C         140.8338  137.1447  164.1704 C.3     1  UNL1        0.0970
     23 C         139.5757  137.7576  164.7102 C.3     1  UNL1        0.1264
     24 C         140.4596  141.5395  166.9830 C.ar    1  UNL1        0.1403
     25 C         139.9826  142.8602  166.4557 C.ar    1  UNL1        0.0385
     26 C         139.2109  142.9203  165.1708 C.ar    1  UNL1        0.0237
     27 C         138.9162  141.6597  164.4133 C.ar    1  UNL1        0.0975
     28 N         138.1445  141.7198  163.1284 N.ar    1  UNL1       -0.2374
     29 C         137.8499  140.4592  162.3708 C.ar    1  UNL1        0.1594
     30 C         138.3269  139.1384  162.8981 C.ar    1  UNL1        0.2803
     31 O         138.0323  137.8778  162.1405 O.2     1  UNL1       -0.2653
     32 N         139.0986  139.0783  164.1830 N.ar    1  UNL1       -0.2913
     33 C         139.3933  140.3390  164.9405 C.ar    1  UNL1        0.0832
     34 C         140.1650  140.2789  166.2254 C.ar    1  UNL1        0.0557
     35 C         141.9937  140.2387  168.6275 C.3     1  UNL1        0.2525
     36 O         141.2313  141.4794  168.2679 O.3     1  UNL1       -0.4714
@<TRIPOS>BOND
     1    35    36    1
     2    36    24    1
     3    24    25   ar
     4    25    26   ar
     5    26    27   ar
     6    27    28   ar
     7    28    29   ar
     8    29    30   ar
     9    30    31    2
    10    30    32   ar
    11    32    23    1
    12    23    22    1
    13    22     1    1
    14     1     2    1
    15     2     3    1
    16     3     4    1
    17     4     7    1
    18     7     9    1
    19     9    10    1
    20    10    11   ar
    21    11    12   ar
    22    12    13   ar
    23    13    14   ar
    24    14    15   ar
    25    13    16    1
    26    16    17    1
    27    17    18    1
    28    18    19    1
    29     4     5    1
    30     5    20    1
    31    20    21    1
    32     5     6    1
    33    32    33   ar
    34    33    34   ar
    35    34    24   ar
    36    33    27   ar
    37     6     1    1
    38    15    10   ar
    39    19    12    1
    40     7     8    1
@<TRIPOS>MOLECULE
*****
 36 40 0 0 0
SMALL
GASTEIGER

@<TRIPOS>ATOM
      1 N         139.5740  137.9958  164.5384 N.3     1  UNL1       -0.2689
      2 C         141.0027  137.7640  164.9321 C.3     1  UNL1        0.0737
      3 C         142.0585  137.6245  163.8759 C.3     1  UNL1        0.0356
      4 C         141.6856  137.7168  162.4259 C.3     1  UNL1        0.0846
      5 C         140.2569  137.9486  162.0322 C.3     1  UNL1        0.1455
      6 C         139.2011  138.0881  163.0885 C.3     1  UNL1        0.1034
      7 N         142.7415  137.5773  161.3696 N.3     1  UNL1       -0.2915
      8 H         142.2951  137.7892  160.4773 H       1  UNL1        0.1236
      9 C         143.9869  138.4105  161.4394 C.3     1  UNL1        0.1153
     10 C         143.8855  139.9009  161.5738 C.ar    1  UNL1        0.0782
     11 C         144.0617  140.5466  162.9162 C.ar    1  UNL1        0.0562
     12 C         143.9604  142.0371  163.0507 C.ar    1  UNL1        0.1752
     13 C         143.6829  142.8820  161.8427 C.ar    1  UNL1        0.1914
     14 C         143.5067  142.2363  160.5002 C.ar    1  UNL1        0.1384
     15 N         143.6081  140.7458  160.3658 N.ar    1  UNL1       -0.2434
     16 O         143.5815  144.3725  161.9771 O.3     1  UNL1       -0.4668
     17 C         143.7577  145.0182  163.3195 C.3     1  UNL1        0.2527
     18 C         144.0352  144.1734  164.5275 C.3     1  UNL1        0.2526
     19 O         144.1365  142.6828  164.3931 O.3     1  UNL1       -0.4683
     20 O         139.8840  138.0409  160.5822 O.3     1  UNL1       -0.3508
     21 C         138.8017  138.9828  160.1446 C.3     1  UNL1        0.1741
     22 C         138.5181  138.1353  165.5948 C.3     1  UNL1        0.0970
     23 C         138.0426  139.4977  166.0046 C.3     1  UNL1        0.1264
     24 C         138.5568  142.7045  162.8898 C.ar    1  UNL1        0.1403
     25 C         139.5466  143.8101  163.1080 C.ar    1  UNL1        0.0385
     26 C         140.3652  143.8468  164.3645 C.ar    1  UNL1        0.0237
     27 C         140.1938  142.7779  165.4027 C.ar    1  UNL1        0.0975
     28 N         141.0123  142.8146  166.6592 N.ar    1  UNL1       -0.2374
     29 C         140.8410  141.7457  167.6974 C.ar    1  UNL1        0.1594
     30 C         139.8510  140.6400  167.4792 C.ar    1  UNL1        0.2803
     31 O         139.6797  139.5711  168.5175 O.2     1  UNL1       -0.2653
     32 N         139.0325  140.6033  166.2228 N.ar    1  UNL1       -0.2913
     33 C         139.2039  141.6723  165.1845 C.ar    1  UNL1        0.0832
     34 C         138.3854  141.6356  163.9280 C.ar    1  UNL1        0.0557
     35 C         138.4155  142.5493  160.3002 C.3     1  UNL1        0.2525
     36 O         137.7382  142.6678  161.6333 O.3     1  UNL1       -0.4714
@<TRIPOS>BOND
     1    35    36    1
     2    36    24    1
     3    24    25   ar
     4    25    26   ar
     5    26    27   ar
     6    27    28   ar
     7    28    29   ar
     8    29    30   ar
     9    30    31    2
    10    30    32   ar
    11    32    23    1
    12    23    22    1
    13    22     1    1
    14     1     2    1
    15     2     3    1
    16     3     4    1
    17     4     7    1
    18     7     9    1
    19     9    10    1
    20    10    11   ar
    21    11    12   ar
    22    12    13   ar
    23    13    14   ar
    24    14    15   ar
    25    13    16    1
    26    16    17    1
    27    17    18    1
    28    18    19    1
    29     4     5    1
    30     5    20    1
    31    20    21    1
    32     5     6    1
    33    32    33   ar
    34    33    34   ar
    35    34    24   ar
    36    33    27   ar
    37     6     1    1
    38    15    10   ar
    39    19    12    1
    40     7     8    1
@<TRIPOS>MOLECULE
*****
 36 40 0 0 0
SMALL
GASTEIGER

@<TRIPOS>ATOM
      1 N         137.8319  140.2237  161.8730 N.3     1  UNL1       -0.2689
      2 C         137.5169  140.8407  163.2034 C.3     1  UNL1        0.0737
      3 C         137.6436  142.3235  163.3914 C.3     1  UNL1        0.0356
      4 C         138.0854  143.1892  162.2489 C.3     1  UNL1        0.0846
      5 C         138.4004  142.5721  160.9185 C.3     1  UNL1        0.1455
      6 C         138.2737  141.0894  160.7305 C.3     1  UNL1        0.1034
      7 N         138.2122  144.6720  162.4368 N.3     1  UNL1       -0.2915
      8 H         137.6497  144.9146  163.2524 H       1  UNL1        0.1236
      9 C         139.5637  145.2889  162.6437 C.3     1  UNL1        0.1153
     10 C         140.6865  144.4655  163.2015 C.ar    1  UNL1        0.0782
     11 C         141.8687  144.1289  162.3417 C.ar    1  UNL1        0.0562
     12 C         142.9915  143.3055  162.8996 C.ar    1  UNL1        0.1752
     13 C         142.9323  142.8187  164.3172 C.ar    1  UNL1        0.1914
     14 C         141.7501  143.1554  165.1770 C.ar    1  UNL1        0.1384
     15 N         140.6272  143.9788  164.6191 N.ar    1  UNL1       -0.2434
     16 O         144.0551  141.9953  164.8750 O.3     1  UNL1       -0.4668
     17 C         145.2373  141.6587  164.0153 C.3     1  UNL1        0.2527
     18 C         145.2966  142.1454  162.5977 C.3     1  UNL1        0.2526
     19 O         144.1737  142.9688  162.0398 O.3     1  UNL1       -0.4683
     20 O         138.8422  143.4379  159.7759 O.3     1  UNL1       -0.3508
     21 C         140.1789  143.2091  159.1348 C.3     1  UNL1        0.1741
     22 C         137.7051  138.7409  161.6851 C.3     1  UNL1        0.0970
     23 C         138.9309  137.9058  161.4609 C.3     1  UNL1        0.1264
     24 C         143.0540  138.7212  159.8530 C.ar    1  UNL1        0.1403
     25 C         144.2177  138.8296  160.7932 C.ar    1  UNL1        0.0385
     26 C         144.0070  138.6662  162.2693 C.ar    1  UNL1        0.0237
     27 C         142.6327  138.3944  162.8053 C.ar    1  UNL1        0.0975
     28 N         142.4221  138.2311  164.2814 N.ar    1  UNL1       -0.2374
     29 C         141.0477  137.9593  164.8174 C.ar    1  UNL1        0.1594
     30 C         139.8839  137.8509  163.8772 C.ar    1  UNL1        0.2803
     31 O         138.5096  137.5791  164.4131 O.2     1  UNL1       -0.2653
     32 N         140.0946  138.0142  162.4010 N.ar    1  UNL1       -0.2913
     33 C         141.4690  138.2860  161.8651 C.ar    1  UNL1        0.0832
     34 C         141.6796  138.4494  160.3890 C.ar    1  UNL1        0.0557
     35 C         143.7546  140.1922  157.8294 C.3     1  UNL1        0.2525
     36 O         143.2646  138.8845  158.3769 O.3     1  UNL1       -0.4714
@<TRIPOS>BOND
     1    35    36    1
     2    36    24    1
     3    24    25   ar
     4    25    26   ar
     5    26    27   ar
     6    27    28   ar
     7    28    29   ar
     8    29    30   ar
     9    30    31    2
    10    30    32   ar
    11    32    23    1
    12    23    22    1
    13    22     1    1
    14     1     2    1
    15     2     3    1
    16     3     4    1
    17     4     7    1
    18     7     9    1
    19     9    10    1
    20    10    11   ar
    21    11    12   ar
    22    12    13   ar
    23    13    14   ar
    24    14    15   ar
    25    13    16    1
    26    16    17    1
    27    17    18    1
    28    18    19    1
    29     4     5    1
    30     5    20    1
    31    20    21    1
    32     5     6    1
    33    32    33   ar
    34    33    34   ar
    35    34    24   ar
    36    33    27   ar
    37     6     1    1
    38    15    10   ar
    39    19    12    1
    40     7     8    1
@<TRIPOS>MOLECULE
*****
 36 40 0 0 0
SMALL
GASTEIGER

@<TRIPOS>ATOM
      1 N         140.1197  143.7437  164.6116 N.3     1  UNL1       -0.2689
      2 C         140.9553  144.5347  163.6491 C.3     1  UNL1        0.0737
      3 C         142.4512  144.4351  163.6971 C.3     1  UNL1        0.0356
      4 C         143.1115  143.5446  164.7074 C.3     1  UNL1        0.0846
      5 C         142.2760  142.7536  165.6699 C.3     1  UNL1        0.1455
      6 C         140.7801  142.8532  165.6219 C.3     1  UNL1        0.1034
      7 N         144.6075  143.4450  164.7554 N.3     1  UNL1       -0.2915
      8 H         144.8733  143.4771  165.7396 H       1  UNL1        0.1236
      9 C         145.2994  142.2554  164.1586 C.3     1  UNL1        0.1153
     10 C         144.7761  141.6391  162.8952 C.ar    1  UNL1        0.0782
     11 C         144.3096  140.2135  162.8934 C.ar    1  UNL1        0.0562
     12 C         143.7863  139.5973  161.6299 C.ar    1  UNL1        0.1752
     13 C         143.7295  140.4066  160.3682 C.ar    1  UNL1        0.1914
     14 C         144.1960  141.8322  160.3701 C.ar    1  UNL1        0.1384
     15 N         144.7194  142.4485  161.6336 N.ar    1  UNL1       -0.2434
     16 O         143.2062  139.7903  159.1048 O.3     1  UNL1       -0.4668
     17 C         142.7396  138.3647  159.1030 C.3     1  UNL1        0.2527
     18 C         142.7964  137.5554  160.3646 C.3     1  UNL1        0.2526
     19 O         143.3198  138.1717  161.6281 O.3     1  UNL1       -0.4683
     20 O         142.9364  141.8631  166.6803 O.3     1  UNL1       -0.3508
     21 C         142.6747  142.0657  168.1433 C.3     1  UNL1        0.1741
     22 C         138.6238  143.8434  164.5636 C.3     1  UNL1        0.0970
     23 C         137.8452  142.9855  163.6107 C.3     1  UNL1        0.1264
     24 C         138.3555  139.0031  165.6429 C.ar    1  UNL1        0.1403
     25 C         139.0339  137.8754  164.9233 C.ar    1  UNL1        0.0385
     26 C         139.5421  138.0751  163.5262 C.ar    1  UNL1        0.0237
     27 C         139.3720  139.4025  162.8488 C.ar    1  UNL1        0.0975
     28 N         139.8803  139.6022  161.4517 N.ar    1  UNL1       -0.2374
     29 C         139.7102  140.9296  160.7743 C.ar    1  UNL1        0.1594
     30 C         139.0318  142.0575  161.4940 C.ar    1  UNL1        0.2803
     31 O         138.8617  143.3849  160.8166 O.2     1  UNL1       -0.2653
     32 N         138.5235  141.8578  162.8911 N.ar    1  UNL1       -0.2913
     33 C         138.6937  140.5302  163.5685 C.ar    1  UNL1        0.0832
     34 C         138.1854  140.3306  164.9655 C.ar    1  UNL1        0.0557
     35 C         137.0602  137.5735  167.3831 C.3     1  UNL1        0.2525
     36 O         137.8472  138.8034  167.0400 O.3     1  UNL1       -0.4714
@<TRIPOS>BOND
     1    35    36    1
     2    36    24    1
     3    24    25   ar
     4    25    26   ar
     5    26    27   ar
     6    27    28   ar
     7    28    29   ar
     8    29    30   ar
     9    30    31    2
    10    30    32   ar
    11    32    23    1
    12    23    22    1
    13    22     1    1
    14     1     2    1
    15     2     3    1
    16     3     4    1
    17     4     7    1
    18     7     9    1
    19     9    10    1
    20    10    11   ar
    21    11    12   ar
    22    12    13   ar
    23    13    14   ar
    24    14    15   ar
    25    13    16    1
    26    16    17    1
    27    17    18    1
    28    18    19    1
    29     4     5    1
    30     5    20    1
    31    20    21    1
    32     5     6    1
    33    32    33   ar
    34    33    34   ar
    35    34    24   ar
    36    33    27   ar
    37     6     1    1
    38    15    10   ar
    39    19    12    1
    40     7     8    1
