@<TRIPOS>MOLECULE
*****
 28 32 0 0 0
SMALL
GASTEIGER

@<TRIPOS>ATOM
      1 N         141.5467  138.3975  159.1746 N.3     1  UNL1       -0.2624
      2 C         140.0691  138.6425  159.0933 C.3     1  UNL1        0.0900
      3 C         139.2201  138.5222  160.3240 C.3     1  UNL1        0.0900
      4 N         139.8487  138.1569  161.6361 N.3     1  UNL1       -0.2648
      5 C         141.3264  137.9119  161.7173 C.3     1  UNL1        0.0900
      6 C         142.1753  138.0322  160.4866 C.3     1  UNL1        0.0900
      7 C         142.3958  138.5177  157.9438 C.3     1  UNL1        0.1604
      8 C         143.5482  134.9728  156.8618 C.ar    1  UNL1        0.2496
      9 N         144.1246  135.8135  155.7613 N.ar    1  UNL1       -0.1072
     10 N         143.7631  137.2437  156.0327 N.ar    1  UNL1       -0.1099
     11 C         142.9632  137.2870  157.3009 C.ar    1  UNL1        0.2426
     12 O         142.8304  135.8836  157.8133 O.2     1  UNL1       -0.4181
     13 C         143.9089  130.5034  157.2420 C.ar    1  UNL1        0.0000
     14 C         142.7737  131.1009  156.4644 C.ar    1  UNL1        0.0002
     15 C         142.6536  132.5906  156.3377 C.ar    1  UNL1        0.0047
     16 C         143.6684  133.4830  156.9885 C.ar    1  UNL1        0.0551
     17 C         144.8035  132.8857  157.7661 C.ar    1  UNL1        0.0047
     18 C         144.9238  131.3959  157.8928 C.ar    1  UNL1        0.0002
     19 C         138.9997  138.0366  162.8668 C.3     1  UNL1        0.1256
     20 C         139.2908  138.8906  164.0651 C.ar    1  UNL1        0.1044
     21 N         139.8898  140.2656  164.0434 N.ar    1  UNL1       -0.2413
     22 C         140.0032  140.7444  165.4604 C.ar    1  UNL1        0.0875
     23 C         140.5197  142.0235  166.0494 C.ar    1  UNL1        0.0196
     24 C         140.5073  142.2235  167.5359 C.ar    1  UNL1        0.0016
     25 C         139.9784  141.1443  168.4335 C.ar    1  UNL1        0.0006
     26 C         139.4618  139.8651  167.8445 C.ar    1  UNL1        0.0080
     27 C         139.4742  139.6652  166.3580 C.ar    1  UNL1        0.0482
     28 S         139.0340  138.5195  165.4956 S.2     1  UNL1       -0.0694
@<TRIPOS>BOND
     1    13    14   ar
     2    14    15   ar
     3    15    16   ar
     4    16     8    1
     5     8     9   ar
     6     9    10   ar
     7    10    11   ar
     8    11     7    1
     9     7     1    1
    10     1     2    1
    11     2     3    1
    12     3     4    1
    13     4    19    1
    14    19    20    1
    15    20    21   ar
    16    21    22   ar
    17    22    23   ar
    18    23    24   ar
    19    24    25   ar
    20    25    26   ar
    21    26    27   ar
    22    27    28   ar
    23     4     5    1
    24     5     6    1
    25    11    12   ar
    26    16    17   ar
    27    17    18   ar
    28    18    13   ar
    29    12     8   ar
    30     6     1    1
    31    28    20   ar
    32    27    22   ar
@<TRIPOS>MOLECULE
*****
 28 32 0 0 0
SMALL
GASTEIGER

@<TRIPOS>ATOM
      1 N         139.4327  138.4764  163.6858 N.3     1  UNL1       -0.2624
      2 C         139.0623  139.6457  162.8224 C.3     1  UNL1        0.0900
      3 C         139.8889  139.9787  161.6157 C.3     1  UNL1        0.0900
      4 N         141.0858  139.1423  161.2725 N.3     1  UNL1       -0.2648
      5 C         141.4562  137.9729  162.1359 C.3     1  UNL1        0.0900
      6 C         140.6296  137.6400  163.3425 C.3     1  UNL1        0.0900
      7 C         138.6062  138.1434  164.8925 C.3     1  UNL1        0.1604
      8 C         139.9410  140.1575  167.9300 C.ar    1  UNL1        0.2496
      9 N         138.7005  139.5456  168.5104 N.ar    1  UNL1       -0.1072
     10 N         138.0495  138.7167  167.4432 N.ar    1  UNL1       -0.1099
     11 C         138.8876  138.8162  166.2032 C.ar    1  UNL1        0.2426
     12 O         140.0566  139.7066  166.5041 O.2     1  UNL1       -0.4181
     13 C         142.8115  142.8693  170.0879 C.ar    1  UNL1        0.0000
     14 C         141.3933  143.3040  169.8639 C.ar    1  UNL1        0.0002
     15 C         140.4366  142.4000  169.1447 C.ar    1  UNL1        0.0047
     16 C         140.8978  141.0614  168.6493 C.ar    1  UNL1        0.0551
     17 C         142.3159  140.6268  168.8732 C.ar    1  UNL1        0.0047
     18 C         143.2727  141.5307  169.5925 C.ar    1  UNL1        0.0002
     19 C         141.9123  139.4752  160.0658 C.3     1  UNL1        0.1256
     20 C         141.9130  138.5561  158.8804 C.ar    1  UNL1        0.1044
     21 N         143.0608  137.7039  158.4261 N.ar    1  UNL1       -0.2413
     22 C         142.6232  136.9489  157.2061 C.ar    1  UNL1        0.0875
     23 C         143.3330  135.9602  156.3294 C.ar    1  UNL1        0.0196
     24 C         142.6245  135.3571  155.1529 C.ar    1  UNL1        0.0016
     25 C         141.2062  135.7427  154.8530 C.ar    1  UNL1        0.0006
     26 C         140.4965  136.7314  155.7297 C.ar    1  UNL1        0.0080
     27 C         141.2050  137.3345  156.9062 C.ar    1  UNL1        0.0482
     28 S         140.7661  138.3278  157.9410 S.2     1  UNL1       -0.0694
@<TRIPOS>BOND
     1    13    14   ar
     2    14    15   ar
     3    15    16   ar
     4    16     8    1
     5     8     9   ar
     6     9    10   ar
     7    10    11   ar
     8    11     7    1
     9     7     1    1
    10     1     2    1
    11     2     3    1
    12     3     4    1
    13     4    19    1
    14    19    20    1
    15    20    21   ar
    16    21    22   ar
    17    22    23   ar
    18    23    24   ar
    19    24    25   ar
    20    25    26   ar
    21    26    27   ar
    22    27    28   ar
    23     4     5    1
    24     5     6    1
    25    11    12   ar
    26    16    17   ar
    27    17    18   ar
    28    18    13   ar
    29    12     8   ar
    30     6     1    1
    31    28    20   ar
    32    27    22   ar
@<TRIPOS>MOLECULE
*****
 28 32 0 0 0
SMALL
GASTEIGER

@<TRIPOS>ATOM
      1 N         142.6581  139.4831  160.9995 N.3     1  UNL1       -0.2624
      2 C         143.9034  139.5744  161.8306 C.3     1  UNL1        0.0900
      3 C         143.8833  139.1305  163.2633 C.3     1  UNL1        0.0900
      4 N         142.6178  138.5952  163.8649 N.3     1  UNL1       -0.2648
      5 C         141.3724  138.5039  163.0338 C.3     1  UNL1        0.0900
      6 C         141.3925  138.9479  161.6011 C.3     1  UNL1        0.0900
      7 C         142.6782  139.9271  159.5668 C.3     1  UNL1        0.1604
      8 C         142.9287  136.8805  157.1750 C.ar    1  UNL1        0.2496
      9 N         143.7190  137.9077  156.4198 N.ar    1  UNL1       -0.1072
     10 N         143.7214  139.1740  157.2238 N.ar    1  UNL1       -0.1099
     11 C         142.9325  138.9294  158.4760 C.ar    1  UNL1        0.2426
     12 O         142.4426  137.5120  158.4458 O.2     1  UNL1       -0.4181
     13 C         142.1524  132.6477  155.8592 C.ar    1  UNL1        0.0000
     14 C         143.1545  132.9253  156.9405 C.ar    1  UNL1        0.0002
     15 C         143.4132  134.3362  157.3790 C.ar    1  UNL1        0.0047
     16 C         142.6700  135.4696  156.7364 C.ar    1  UNL1        0.0551
     17 C         141.6680  135.1921  155.6552 C.ar    1  UNL1        0.0047
     18 C         141.4092  133.7812  155.2166 C.ar    1  UNL1        0.0002
     19 C         142.5976  138.1513  165.2975 C.3     1  UNL1        0.1256
     20 C         142.4506  139.1638  166.3944 C.ar    1  UNL1        0.1044
     21 N         143.0383  139.0640  167.7709 N.ar    1  UNL1       -0.2413
     22 C         142.6411  140.2924  168.5347 C.ar    1  UNL1        0.0875
     23 C         142.9304  140.7397  169.9369 C.ar    1  UNL1        0.0196
     24 C         142.3865  142.0460  170.4346 C.ar    1  UNL1        0.0016
     25 C         141.5533  142.9049  169.5302 C.ar    1  UNL1        0.0006
     26 C         141.2640  142.4576  168.1280 C.ar    1  UNL1        0.0080
     27 C         141.8079  141.1513  167.6303 C.ar    1  UNL1        0.0482
     28 S         141.6902  140.4538  166.3075 S.2     1  UNL1       -0.0694
@<TRIPOS>BOND
     1    13    14   ar
     2    14    15   ar
     3    15    16   ar
     4    16     8    1
     5     8     9   ar
     6     9    10   ar
     7    10    11   ar
     8    11     7    1
     9     7     1    1
    10     1     2    1
    11     2     3    1
    12     3     4    1
    13     4    19    1
    14    19    20    1
    15    20    21   ar
    16    21    22   ar
    17    22    23   ar
    18    23    24   ar
    19    24    25   ar
    20    25    26   ar
    21    26    27   ar
    22    27    28   ar
    23     4     5    1
    24     5     6    1
    25    11    12   ar
    26    16    17   ar
    27    17    18   ar
    28    18    13   ar
    29    12     8   ar
    30     6     1    1
    31    28    20   ar
    32    27    22   ar
@<TRIPOS>MOLECULE
*****
 28 32 0 0 0
SMALL
GASTEIGER

@<TRIPOS>ATOM
      1 N         138.4653  139.9291  158.7895 N.3     1  UNL1       -0.2624
      2 C         137.5189  140.2426  159.9102 C.3     1  UNL1        0.0900
      3 C         137.5922  139.4679  161.1927 C.3     1  UNL1        0.0900
      4 N         138.6119  138.3797  161.3543 N.3     1  UNL1       -0.2648
      5 C         139.5583  138.0662  160.2334 C.3     1  UNL1        0.0900
      6 C         139.4849  138.8409  158.9511 C.3     1  UNL1        0.0900
      7 C         138.3920  140.7038  157.5071 C.3     1  UNL1        0.1604
      8 C         134.7359  140.6340  156.2059 C.ar    1  UNL1        0.2496
      9 N         135.3965  141.4926  155.1684 N.ar    1  UNL1       -0.1072
     10 N         136.8464  141.6233  155.5295 N.ar    1  UNL1       -0.1099
     11 C         137.0820  140.8454  156.7902 C.ar    1  UNL1        0.2426
     12 O         135.7776  140.2340  157.2082 O.2     1  UNL1       -0.4181
     13 C         130.3916  139.4637  156.2955 C.ar    1  UNL1        0.0000
     14 C         131.4424  138.4797  156.7174 C.ar    1  UNL1        0.0002
     15 C         132.8904  138.8699  156.6875 C.ar    1  UNL1        0.0047
     16 C         133.2878  140.2439  156.2358 C.ar    1  UNL1        0.0551
     17 C         132.2371  141.2278  155.8139 C.ar    1  UNL1        0.0047
     18 C         130.7890  140.8377  155.8438 C.ar    1  UNL1        0.0002
     19 C         138.6852  137.6050  162.6366 C.3     1  UNL1        0.1256
     20 C         139.6209  138.0420  163.7244 C.ar    1  UNL1        0.1044
     21 N         139.2877  138.9723  164.8530 N.ar    1  UNL1       -0.2413
     22 C         140.5150  139.1308  165.7008 C.ar    1  UNL1        0.0875
     23 C         140.7795  139.9254  166.9452 C.ar    1  UNL1        0.0196
     24 C         142.1356  139.8878  167.5850 C.ar    1  UNL1        0.0016
     25 C         143.2273  139.0555  166.9804 C.ar    1  UNL1        0.0006
     26 C         142.9628  138.2608  165.7360 C.ar    1  UNL1        0.0080
     27 C         141.6067  138.2985  165.0962 C.ar    1  UNL1        0.0482
     28 S         141.0541  137.6256  163.8748 S.2     1  UNL1       -0.0694
@<TRIPOS>BOND
     1    13    14   ar
     2    14    15   ar
     3    15    16   ar
     4    16     8    1
     5     8     9   ar
     6     9    10   ar
     7    10    11   ar
     8    11     7    1
     9     7     1    1
    10     1     2    1
    11     2     3    1
    12     3     4    1
    13     4    19    1
    14    19    20    1
    15    20    21   ar
    16    21    22   ar
    17    22    23   ar
    18    23    24   ar
    19    24    25   ar
    20    25    26   ar
    21    26    27   ar
    22    27    28   ar
    23     4     5    1
    24     5     6    1
    25    11    12   ar
    26    16    17   ar
    27    17    18   ar
    28    18    13   ar
    29    12     8   ar
    30     6     1    1
    31    28    20   ar
    32    27    22   ar
@<TRIPOS>MOLECULE
*****
 28 32 0 0 0
SMALL
GASTEIGER

@<TRIPOS>ATOM
      1 N         139.1171  144.3924  156.5843 N.3     1  UNL1       -0.2624
      2 C         138.1908  144.8416  155.4933 C.3     1  UNL1        0.0900
      3 C         137.2830  143.8518  154.8253 C.3     1  UNL1        0.0900
      4 N         137.3015  142.4128  155.2482 N.3     1  UNL1       -0.2648
      5 C         138.2278  141.9636  156.3393 C.3     1  UNL1        0.0900
      6 C         139.1356  142.9534  157.0073 C.3     1  UNL1        0.0900
      7 C         140.0249  145.3822  157.2524 C.3     1  UNL1        0.1604
      8 C         140.7150  144.6350  160.9981 C.ar    1  UNL1        0.2496
      9 N         142.1100  144.6706  160.4478 N.ar    1  UNL1       -0.1072
     10 N         142.0213  144.9548  158.9777 N.ar    1  UNL1       -0.1099
     11 C         140.5714  145.0949  158.6193 C.ar    1  UNL1        0.2426
     12 O         139.7642  144.8972  159.8680 O.2     1  UNL1       -0.4181
     13 C         139.5817  143.8748  165.2862 C.ar    1  UNL1        0.0000
     14 C         138.6808  144.6888  164.4052 C.ar    1  UNL1        0.0002
     15 C         139.0586  144.9421  162.9760 C.ar    1  UNL1        0.0047
     16 C         140.3373  144.3816  162.4275 C.ar    1  UNL1        0.0551
     17 C         141.2381  143.5677  163.3083 C.ar    1  UNL1        0.0047
     18 C         140.8604  143.3143  164.7377 C.ar    1  UNL1        0.0002
     19 C         136.3938  141.4230  154.5802 C.3     1  UNL1        0.1256
     20 C         135.1657  140.9341  155.2893 C.ar    1  UNL1        0.1044
     21 N         135.1343  139.9531  156.4236 N.ar    1  UNL1       -0.2413
     22 C         133.7026  139.7530  156.8239 C.ar    1  UNL1        0.0875
     23 C         133.0658  138.9009  157.8814 C.ar    1  UNL1        0.0196
     24 C         131.5755  138.9063  158.0521 C.ar    1  UNL1        0.0016
     25 C         130.7221  139.7637  157.1652 C.ar    1  UNL1        0.0006
     26 C         131.3589  140.6158  156.1077 C.ar    1  UNL1        0.0080
     27 C         132.8492  140.6105  155.9371 C.ar    1  UNL1        0.0482
     28 S         133.7534  141.3404  154.9887 S.2     1  UNL1       -0.0694
@<TRIPOS>BOND
     1    13    14   ar
     2    14    15   ar
     3    15    16   ar
     4    16     8    1
     5     8     9   ar
     6     9    10   ar
     7    10    11   ar
     8    11     7    1
     9     7     1    1
    10     1     2    1
    11     2     3    1
    12     3     4    1
    13     4    19    1
    14    19    20    1
    15    20    21   ar
    16    21    22   ar
    17    22    23   ar
    18    23    24   ar
    19    24    25   ar
    20    25    26   ar
    21    26    27   ar
    22    27    28   ar
    23     4     5    1
    24     5     6    1
    25    11    12   ar
    26    16    17   ar
    27    17    18   ar
    28    18    13   ar
    29    12     8   ar
    30     6     1    1
    31    28    20   ar
    32    27    22   ar
@<TRIPOS>MOLECULE
*****
 28 32 0 0 0
SMALL
GASTEIGER

@<TRIPOS>ATOM
      1 N         140.1045  139.0388  157.6188 N.3     1  UNL1       -0.2624
      2 C         140.2437  138.3186  158.9271 C.3     1  UNL1        0.0900
      3 C         139.3352  138.6591  160.0712 C.3     1  UNL1        0.0900
      4 N         138.2874  139.7198  159.9067 N.3     1  UNL1       -0.2648
      5 C         138.1482  140.4400  158.5983 C.3     1  UNL1        0.0900
      6 C         139.0567  140.0995  157.4544 C.3     1  UNL1        0.0900
      7 C         141.0130  138.6983  156.4747 C.3     1  UNL1        0.1604
      8 C         142.2847  135.0547  156.0603 C.ar    1  UNL1        0.2496
      9 N         141.0982  135.0537  155.1426 N.ar    1  UNL1       -0.1072
     10 N         140.4774  136.4185  155.1862 N.ar    1  UNL1       -0.1099
     11 C         141.2802  137.2630  156.1308 C.ar    1  UNL1        0.2426
     12 O         142.3972  136.4201  156.6710 O.2     1  UNL1       -0.4181
     13 C         145.0257  131.5728  156.8436 C.ar    1  UNL1        0.0000
     14 C         144.2831  131.6651  155.5435 C.ar    1  UNL1        0.0002
     15 C         143.3695  132.8257  155.2825 C.ar    1  UNL1        0.0047
     16 C         143.1984  133.8941  156.3214 C.ar    1  UNL1        0.0551
     17 C         143.9410  133.8018  157.6214 C.ar    1  UNL1        0.0047
     18 C         144.8546  132.6411  157.8825 C.ar    1  UNL1        0.0002
     19 C         137.3789  140.0603  161.0507 C.3     1  UNL1        0.1256
     20 C         137.8303  141.0274  162.1047 C.ar    1  UNL1        0.1044
     21 N         137.5529  142.5014  162.1258 N.ar    1  UNL1       -0.2413
     22 C         138.1894  143.0753  163.3568 C.ar    1  UNL1        0.0875
     23 C         138.2449  144.4725  163.8998 C.ar    1  UNL1        0.0196
     24 C         138.9711  144.7504  165.1824 C.ar    1  UNL1        0.0016
     25 C         139.6420  143.6311  165.9221 C.ar    1  UNL1        0.0006
     26 C         139.5865  142.2339  165.3792 C.ar    1  UNL1        0.0080
     27 C         138.8603  141.9561  164.0966 C.ar    1  UNL1        0.0482
     28 S         138.6383  140.6904  163.3227 S.2     1  UNL1       -0.0694
@<TRIPOS>BOND
     1    13    14   ar
     2    14    15   ar
     3    15    16   ar
     4    16     8    1
     5     8     9   ar
     6     9    10   ar
     7    10    11   ar
     8    11     7    1
     9     7     1    1
    10     1     2    1
    11     2     3    1
    12     3     4    1
    13     4    19    1
    14    19    20    1
    15    20    21   ar
    16    21    22   ar
    17    22    23   ar
    18    23    24   ar
    19    24    25   ar
    20    25    26   ar
    21    26    27   ar
    22    27    28   ar
    23     4     5    1
    24     5     6    1
    25    11    12   ar
    26    16    17   ar
    27    17    18   ar
    28    18    13   ar
    29    12     8   ar
    30     6     1    1
    31    28    20   ar
    32    27    22   ar
@<TRIPOS>MOLECULE
*****
 28 32 0 0 0
SMALL
GASTEIGER

@<TRIPOS>ATOM
      1 N         141.4891  138.2926  158.4867 N.3     1  UNL1       -0.2624
      2 C         140.0112  138.4943  158.6450 C.3     1  UNL1        0.0900
      3 C         139.4090  138.5840  160.0159 C.3     1  UNL1        0.0900
      4 N         140.2848  138.4722  161.2285 N.3     1  UNL1       -0.2648
      5 C         141.7628  138.2705  161.0702 C.3     1  UNL1        0.0900
      6 C         142.3649  138.1808  159.6994 C.3     1  UNL1        0.0900
      7 C         142.0913  138.2029  157.1158 C.3     1  UNL1        0.1604
      8 C         143.5312  134.6393  156.5751 C.ar    1  UNL1        0.2496
      9 N         144.2033  135.3947  155.4671 N.ar    1  UNL1       -0.1072
     10 N         143.7458  136.8215  155.5348 N.ar    1  UNL1       -0.1099
     11 C         142.7908  136.9480  156.6846 C.ar    1  UNL1        0.2426
     12 O         142.6582  135.5993  157.3275 O.2     1  UNL1       -0.4181
     13 C         144.0437  130.2615  157.4823 C.ar    1  UNL1        0.0000
     14 C         142.9015  130.7213  156.6254 C.ar    1  UNL1        0.0002
     15 C         142.7307  132.1804  156.3231 C.ar    1  UNL1        0.0047
     16 C         143.7020  133.1800  156.8775 C.ar    1  UNL1        0.0551
     17 C         144.8442  132.7204  157.7343 C.ar    1  UNL1        0.0047
     18 C         145.0150  131.2611  158.0367 C.ar    1  UNL1        0.0002
     19 C         139.6826  138.5619  162.5994 C.3     1  UNL1        0.1256
     20 C         139.4547  139.9027  163.2322 C.ar    1  UNL1        0.1044
     21 N         140.3537  140.5712  164.2297 N.ar    1  UNL1       -0.2413
     22 C         139.7424  141.8920  164.5925 C.ar    1  UNL1        0.0875
     23 C         140.1834  142.9792  165.5271 C.ar    1  UNL1        0.0196
     24 C         139.3477  144.2142  165.6885 C.ar    1  UNL1        0.0016
     25 C         138.0709  144.3621  164.9152 C.ar    1  UNL1        0.0006
     26 C         137.6299  143.2750  163.9806 C.ar    1  UNL1        0.0080
     27 C         138.4656  142.0399  163.8193 C.ar    1  UNL1        0.0482
     28 S         138.2878  140.8104  162.9785 S.2     1  UNL1       -0.0694
@<TRIPOS>BOND
     1    13    14   ar
     2    14    15   ar
     3    15    16   ar
     4    16     8    1
     5     8     9   ar
     6     9    10   ar
     7    10    11   ar
     8    11     7    1
     9     7     1    1
    10     1     2    1
    11     2     3    1
    12     3     4    1
    13     4    19    1
    14    19    20    1
    15    20    21   ar
    16    21    22   ar
    17    22    23   ar
    18    23    24   ar
    19    24    25   ar
    20    25    26   ar
    21    26    27   ar
    22    27    28   ar
    23     4     5    1
    24     5     6    1
    25    11    12   ar
    26    16    17   ar
    27    17    18   ar
    28    18    13   ar
    29    12     8   ar
    30     6     1    1
    31    28    20   ar
    32    27    22   ar
@<TRIPOS>MOLECULE
*****
 28 32 0 0 0
SMALL
GASTEIGER

@<TRIPOS>ATOM
      1 N         142.8869  138.6287  159.3011 N.3     1  UNL1       -0.2624
      2 C         142.9078  137.6316  160.4215 C.3     1  UNL1        0.0900
      3 C         143.4388  138.0269  161.7675 C.3     1  UNL1        0.0900
      4 N         143.9490  139.4194  161.9931 N.3     1  UNL1       -0.2648
      5 C         143.9281  140.4165  160.8726 C.3     1  UNL1        0.0900
      6 C         143.3971  140.0212  159.5267 C.3     1  UNL1        0.0900
      7 C         142.3559  138.2334  157.9550 C.3     1  UNL1        0.1604
      8 C         143.7765  134.9116  156.5364 C.ar    1  UNL1        0.2496
      9 N         144.2302  135.8897  155.4936 N.ar    1  UNL1       -0.1072
     10 N         143.7533  137.2531  155.8980 N.ar    1  UNL1       -0.1099
     11 C         143.0048  137.1177  157.1909 C.ar    1  UNL1        0.2426
     12 O         143.0191  135.6706  157.5854 O.2     1  UNL1       -0.4181
     13 C         144.5513  130.4788  156.5208 C.ar    1  UNL1        0.0000
     14 C         144.8881  131.2949  157.7336 C.ar    1  UNL1        0.0002
     15 C         144.6298  132.7724  157.7387 C.ar    1  UNL1        0.0047
     16 C         144.0347  133.4340  156.5312 C.ar    1  UNL1        0.0551
     17 C         143.6979  132.6180  155.3185 C.ar    1  UNL1        0.0047
     18 C         143.9562  131.1404  155.3133 C.ar    1  UNL1        0.0002
     19 C         144.4800  139.8147  163.3391 C.3     1  UNL1        0.1256
     20 C         143.5462  139.9413  164.5061 C.ar    1  UNL1        0.1044
     21 N         143.7884  139.4160  165.8901 N.ar    1  UNL1       -0.2413
     22 C         142.5982  139.7655  166.7335 C.ar    1  UNL1        0.0875
     23 C         142.2784  139.5045  168.1755 C.ar    1  UNL1        0.0196
     24 C         140.9809  139.9847  168.7548 C.ar    1  UNL1        0.0016
     25 C         140.0030  140.7259  167.8920 C.ar    1  UNL1        0.0006
     26 C         140.3228  140.9869  166.4500 C.ar    1  UNL1        0.0080
     27 C         141.6203  140.5067  165.8707 C.ar    1  UNL1        0.0482
     28 S         142.2063  140.6153  164.4941 S.2     1  UNL1       -0.0694
@<TRIPOS>BOND
     1    13    14   ar
     2    14    15   ar
     3    15    16   ar
     4    16     8    1
     5     8     9   ar
     6     9    10   ar
     7    10    11   ar
     8    11     7    1
     9     7     1    1
    10     1     2    1
    11     2     3    1
    12     3     4    1
    13     4    19    1
    14    19    20    1
    15    20    21   ar
    16    21    22   ar
    17    22    23   ar
    18    23    24   ar
    19    24    25   ar
    20    25    26   ar
    21    26    27   ar
    22    27    28   ar
    23     4     5    1
    24     5     6    1
    25    11    12   ar
    26    16    17   ar
    27    17    18   ar
    28    18    13   ar
    29    12     8   ar
    30     6     1    1
    31    28    20   ar
    32    27    22   ar
@<TRIPOS>MOLECULE
*****
 28 32 0 0 0
SMALL
GASTEIGER

@<TRIPOS>ATOM
      1 N         140.3475  139.1378  159.9832 N.3     1  UNL1       -0.2624
      2 C         141.8118  138.9013  160.2060 C.3     1  UNL1        0.0900
      3 C         142.6322  138.2263  159.1469 C.3     1  UNL1        0.0900
      4 N         141.9881  137.7879  157.8651 N.3     1  UNL1       -0.2648
      5 C         140.5237  138.0244  157.6424 C.3     1  UNL1        0.0900
      6 C         139.7034  138.6994  158.7014 C.3     1  UNL1        0.0900
      7 C         139.5271  139.8128  161.0422 C.3     1  UNL1        0.1604
      8 C         139.9649  139.1188  164.8359 C.ar    1  UNL1        0.2496
      9 N         139.2125  137.8957  164.4024 N.ar    1  UNL1       -0.1072
     10 N         138.9569  138.0067  162.9285 N.ar    1  UNL1       -0.1099
     11 C         139.5514  139.2985  162.4511 C.ar    1  UNL1        0.2426
     12 O         140.1743  139.9858  163.6299 O.2     1  UNL1       -0.4181
     13 C         141.3505  140.0275  169.0198 C.ar    1  UNL1        0.0000
     14 C         142.3489  139.6602  167.9621 C.ar    1  UNL1        0.0002
     15 C         141.8870  139.3573  166.5676 C.ar    1  UNL1        0.0047
     16 C         140.4268  139.4217  166.2305 C.ar    1  UNL1        0.0551
     17 C         139.4284  139.7889  167.2880 C.ar    1  UNL1        0.0047
     18 C         139.8903  140.0918  168.6827 C.ar    1  UNL1        0.0002
     19 C         142.8084  137.1129  156.8061 C.3     1  UNL1        0.1256
     20 C         142.6594  135.6395  156.5675 C.ar    1  UNL1        0.1044
     21 N         143.4105  134.5513  157.2757 N.ar    1  UNL1       -0.2413
     22 C         142.9485  133.2348  156.7246 C.ar    1  UNL1        0.0875
     23 C         143.3378  131.8216  157.0424 C.ar    1  UNL1        0.0196
     24 C         142.6905  130.6829  156.3113 C.ar    1  UNL1        0.0016
     25 C         141.6538  130.9576  155.2626 C.ar    1  UNL1        0.0006
     26 C         141.2645  132.3709  154.9449 C.ar    1  UNL1        0.0080
     27 C         141.9118  133.5095  155.6759 C.ar    1  UNL1        0.0482
     28 S         141.7332  134.9957  155.5788 S.2     1  UNL1       -0.0694
@<TRIPOS>BOND
     1    13    14   ar
     2    14    15   ar
     3    15    16   ar
     4    16     8    1
     5     8     9   ar
     6     9    10   ar
     7    10    11   ar
     8    11     7    1
     9     7     1    1
    10     1     2    1
    11     2     3    1
    12     3     4    1
    13     4    19    1
    14    19    20    1
    15    20    21   ar
    16    21    22   ar
    17    22    23   ar
    18    23    24   ar
    19    24    25   ar
    20    25    26   ar
    21    26    27   ar
    22    27    28   ar
    23     4     5    1
    24     5     6    1
    25    11    12   ar
    26    16    17   ar
    27    17    18   ar
    28    18    13   ar
    29    12     8   ar
    30     6     1    1
    31    28    20   ar
    32    27    22   ar
