@<TRIPOS>MOLECULE
*****
 37 41 0 0 0
SMALL
GASTEIGER

@<TRIPOS>ATOM
      1 N         137.8772  142.9295  162.9628 N.3     1  UNL1       -0.2687
      2 C         137.9586  142.5707  161.5086 C.3     1  UNL1        0.0737
      3 C         137.9916  141.1301  161.0923 C.3     1  UNL1        0.0359
      4 C         137.9433  140.0482  162.1301 C.3     1  UNL1        0.0901
      5 C         137.8620  140.4070  163.5843 C.3     1  UNL1        0.1911
      6 F         137.8137  139.3250  164.6222 F       1  UNL1       -0.2343
      7 C         137.8289  141.8477  164.0006 C.3     1  UNL1        0.1092
      8 N         137.9764  138.6075  161.7138 N.3     1  UNL1       -0.2913
      9 H         137.3756  138.5240  160.8938 H       1  UNL1        0.1236
     10 C         139.2820  137.9583  161.3618 C.3     1  UNL1        0.1152
     11 C         140.4880  138.1828  162.2250 C.ar    1  UNL1        0.0765
     12 C         140.6640  137.3929  163.4879 C.ar    1  UNL1        0.0193
     13 C         141.8700  137.6174  164.3511 C.ar    1  UNL1        0.0411
     14 C         142.9001  138.6319  163.9514 C.ar    1  UNL1        0.1708
     15 C         142.7241  139.4218  162.6884 C.ar    1  UNL1        0.1682
     16 N         141.5181  139.1973  161.8252 N.ar    1  UNL1       -0.2304
     17 N         143.7542  140.4363  162.2886 N.am    1  UNL1       -0.2639
     18 C         144.9602  140.6608  163.1518 C.2     1  UNL1        0.2718
     19 O         145.9903  141.6753  162.7521 O.2     1  UNL1       -0.2707
     20 C         145.1362  139.8709  164.4147 C.3     1  UNL1        0.2898
     21 O         144.1061  138.8564  164.8145 O.3     1  UNL1       -0.4628
     22 H         143.6387  140.9548  161.4597 H       1  UNL1        0.1565
     23 C         137.8441  144.3703  163.3791 C.3     1  UNL1        0.0970
     24 C         138.9521  144.9340  164.2185 C.3     1  UNL1        0.1264
     25 C         140.8916  142.3251  167.3301 C.ar    1  UNL1        0.1403
     26 C         142.2992  141.8451  167.1348 C.ar    1  UNL1        0.0385
     27 C         143.0603  142.2346  165.9023 C.ar    1  UNL1        0.0237
     28 C         142.4138  143.1042  164.8651 C.ar    1  UNL1        0.0975
     29 N         143.1749  143.4937  163.6327 N.ar    1  UNL1       -0.2374
     30 C         142.5285  144.3633  162.5955 C.ar    1  UNL1        0.1594
     31 C         141.1208  144.8434  162.7907 C.ar    1  UNL1        0.2803
     32 O         140.4743  145.7130  161.7535 O.2     1  UNL1       -0.2653
     33 N         140.3597  144.4539  164.0232 N.ar    1  UNL1       -0.2913
     34 C         141.0062  143.5843  165.0604 C.ar    1  UNL1        0.0832
     35 C         140.2451  143.1947  166.2929 C.ar    1  UNL1        0.0557
     36 C         140.2536  142.7577  169.8112 C.3     1  UNL1        0.2525
     37 O         140.1305  141.9356  168.5626 O.3     1  UNL1       -0.4714
@<TRIPOS>BOND
     1    36    37    1
     2    37    25    1
     3    25    26   ar
     4    26    27   ar
     5    27    28   ar
     6    28    29   ar
     7    29    30   ar
     8    30    31   ar
     9    31    32    2
    10    31    33   ar
    11    33    24    1
    12    24    23    1
    13    23     1    1
    14     1     2    1
    15     2     3    1
    16     3     4    1
    17     4     8    1
    18     8    10    1
    19    10    11    1
    20    11    12   ar
    21    12    13   ar
    22    13    14   ar
    23    14    15   ar
    24    15    16   ar
    25    15    17    1
    26    17    18   am
    27    18    19    2
    28    18    20    1
    29    20    21    1
    30     4     5    1
    31     5     6    1
    32     5     7    1
    33    33    34   ar
    34    34    35   ar
    35    35    25   ar
    36    34    28   ar
    37     7     1    1
    38    16    11   ar
    39    21    14    1
    40     8     9    1
    41    17    22    1
@<TRIPOS>MOLECULE
*****
 37 41 0 0 0
SMALL
GASTEIGER

@<TRIPOS>ATOM
      1 N         144.5499  140.2511  163.3227 N.3     1  UNL1       -0.2687
      2 C         144.1136  140.1277  161.8929 C.3     1  UNL1        0.0737
      3 C         143.0424  139.1471  161.5177 C.3     1  UNL1        0.0359
      4 C         142.4075  138.2899  162.5722 C.3     1  UNL1        0.0901
      5 C         142.8438  138.4134  164.0021 C.3     1  UNL1        0.1911
      6 F         142.2089  137.5562  165.0567 F       1  UNL1       -0.2343
      7 C         143.9150  139.3940  164.3773 C.3     1  UNL1        0.1092
      8 N         141.3362  137.3093  162.1970 N.3     1  UNL1       -0.2913
      9 H         141.2349  136.6684  162.9841 H       1  UNL1        0.1236
     10 C         139.9594  137.7968  161.8556 C.3     1  UNL1        0.1152
     11 C         139.3799  138.9754  162.5802 C.ar    1  UNL1        0.0765
     12 C         138.7687  138.7945  163.9380 C.ar    1  UNL1        0.0193
     13 C         138.1892  139.9731  164.6627 C.ar    1  UNL1        0.0411
     14 C         138.2209  141.3325  164.0296 C.ar    1  UNL1        0.1708
     15 C         138.8322  141.5134  162.6717 C.ar    1  UNL1        0.1682
     16 N         139.4116  140.3348  161.9470 N.ar    1  UNL1       -0.2304
     17 N         138.8639  142.8728  162.0385 N.am    1  UNL1       -0.2639
     18 C         138.2844  144.0514  162.7632 C.2     1  UNL1        0.2718
     19 O         138.3161  145.4109  162.1300 O.2     1  UNL1       -0.2707
     20 C         137.6732  143.8706  164.1210 C.3     1  UNL1        0.2898
     21 O         137.6415  142.5111  164.7542 O.3     1  UNL1       -0.4628
     22 H         139.2650  142.9915  161.1473 H       1  UNL1        0.1565
     23 C         145.6212  141.2318  163.6979 C.3     1  UNL1        0.0970
     24 C         145.2597  142.5013  164.4105 C.3     1  UNL1        0.1264
     25 C         142.3165  141.7420  167.7288 C.ar    1  UNL1        0.1403
     26 C         140.9215  142.2848  167.6328 C.ar    1  UNL1        0.0385
     27 C         140.5075  143.0807  166.4306 C.ar    1  UNL1        0.0237
     28 C         141.4886  143.3338  165.3245 C.ar    1  UNL1        0.0975
     29 N         141.0746  144.1298  164.1224 N.ar    1  UNL1       -0.2374
     30 C         142.0556  144.3829  163.0163 C.ar    1  UNL1        0.1594
     31 C         143.4507  143.8401  163.1123 C.ar    1  UNL1        0.2803
     32 O         144.4317  144.0932  162.0062 O.2     1  UNL1       -0.2653
     33 N         143.8647  143.0441  164.3145 N.ar    1  UNL1       -0.2913
     34 C         142.8836  142.7910  165.4206 C.ar    1  UNL1        0.0832
     35 C         143.2975  141.9951  166.6227 C.ar    1  UNL1        0.0557
     36 C         142.1831  139.5654  169.1412 C.3     1  UNL1        0.2525
     37 O         142.7305  140.9460  168.9309 O.3     1  UNL1       -0.4714
@<TRIPOS>BOND
     1    36    37    1
     2    37    25    1
     3    25    26   ar
     4    26    27   ar
     5    27    28   ar
     6    28    29   ar
     7    29    30   ar
     8    30    31   ar
     9    31    32    2
    10    31    33   ar
    11    33    24    1
    12    24    23    1
    13    23     1    1
    14     1     2    1
    15     2     3    1
    16     3     4    1
    17     4     8    1
    18     8    10    1
    19    10    11    1
    20    11    12   ar
    21    12    13   ar
    22    13    14   ar
    23    14    15   ar
    24    15    16   ar
    25    15    17    1
    26    17    18   am
    27    18    19    2
    28    18    20    1
    29    20    21    1
    30     4     5    1
    31     5     6    1
    32     5     7    1
    33    33    34   ar
    34    34    35   ar
    35    35    25   ar
    36    34    28   ar
    37     7     1    1
    38    16    11   ar
    39    21    14    1
    40     8     9    1
    41    17    22    1
@<TRIPOS>MOLECULE
*****
 37 41 0 0 0
SMALL
GASTEIGER

@<TRIPOS>ATOM
      1 N         141.2000  144.7770  162.8040 N.3     1  UNL1       -0.2687
      2 C         141.5458  144.1803  161.4720 C.3     1  UNL1        0.0737
      3 C         142.9029  143.5820  161.2477 C.3     1  UNL1        0.0359
      4 C         143.9141  143.5803  162.3556 C.3     1  UNL1        0.0901
      5 C         143.5683  144.1770  163.6876 C.3     1  UNL1        0.1911
      6 F         144.5797  144.1753  164.7955 F       1  UNL1       -0.2343
      7 C         142.2113  144.7754  163.9118 C.3     1  UNL1        0.1092
      8 N         145.2713  142.9819  162.1313 N.3     1  UNL1       -0.2913
      9 H         145.9531  143.7090  162.3479 H       1  UNL1        0.1236
     10 C         145.6865  141.7582  162.8930 C.3     1  UNL1        0.1152
     11 C         144.6686  140.7160  163.2504 C.ar    1  UNL1        0.0765
     12 C         144.7590  139.9993  164.5650 C.ar    1  UNL1        0.0193
     13 C         143.7411  138.9570  164.9225 C.ar    1  UNL1        0.0411
     14 C         142.6330  138.6315  163.9654 C.ar    1  UNL1        0.1708
     15 C         142.5427  139.3483  162.6508 C.ar    1  UNL1        0.1682
     16 N         143.5605  140.3905  162.2933 N.ar    1  UNL1       -0.2304
     17 N         141.4346  139.0227  161.6936 N.am    1  UNL1       -0.2639
     18 C         140.4167  137.9805  162.0512 C.2     1  UNL1        0.2718
     19 O         139.3086  137.6550  161.0940 O.2     1  UNL1       -0.2707
     20 C         140.5070  137.2638  163.3657 C.3     1  UNL1        0.2898
     21 O         141.6152  137.5893  164.3229 O.3     1  UNL1       -0.4628
     22 H         141.3753  139.4931  160.8308 H       1  UNL1        0.1565
     23 C         139.8429  145.3754  163.0282 C.3     1  UNL1        0.0970
     24 C         138.8649  144.6957  163.9401 C.3     1  UNL1        0.1264
     25 C         140.4484  142.3030  167.4067 C.ar    1  UNL1        0.1403
     26 C         140.3321  140.8075  167.4011 C.ar    1  UNL1        0.0385
     27 C         139.6881  140.1096  166.2400 C.ar    1  UNL1        0.0237
     28 C         139.1603  140.9072  165.0845 C.ar    1  UNL1        0.0975
     29 N         138.5163  140.2093  163.9234 N.ar    1  UNL1       -0.2374
     30 C         137.9884  141.0069  162.7679 C.ar    1  UNL1        0.1594
     31 C         138.1046  142.5024  162.7734 C.ar    1  UNL1        0.2803
     32 O         137.5768  143.3000  161.6179 O.2     1  UNL1       -0.2653
     33 N         138.7487  143.2003  163.9345 N.ar    1  UNL1       -0.2913
     34 C         139.2765  142.4026  165.0901 C.ar    1  UNL1        0.0832
     35 C         139.9205  143.1005  166.2512 C.ar    1  UNL1        0.0557
     36 C         142.3392  142.4382  169.1833 C.3     1  UNL1        0.2525
     37 O         141.0924  143.0009  168.5678 O.3     1  UNL1       -0.4714
@<TRIPOS>BOND
     1    36    37    1
     2    37    25    1
     3    25    26   ar
     4    26    27   ar
     5    27    28   ar
     6    28    29   ar
     7    29    30   ar
     8    30    31   ar
     9    31    32    2
    10    31    33   ar
    11    33    24    1
    12    24    23    1
    13    23     1    1
    14     1     2    1
    15     2     3    1
    16     3     4    1
    17     4     8    1
    18     8    10    1
    19    10    11    1
    20    11    12   ar
    21    12    13   ar
    22    13    14   ar
    23    14    15   ar
    24    15    16   ar
    25    15    17    1
    26    17    18   am
    27    18    19    2
    28    18    20    1
    29    20    21    1
    30     4     5    1
    31     5     6    1
    32     5     7    1
    33    33    34   ar
    34    34    35   ar
    35    35    25   ar
    36    34    28   ar
    37     7     1    1
    38    16    11   ar
    39    21    14    1
    40     8     9    1
    41    17    22    1
@<TRIPOS>MOLECULE
*****
 37 41 0 0 0
SMALL
GASTEIGER

@<TRIPOS>ATOM
      1 N         141.8536  138.1807  163.7260 N.3     1  UNL1       -0.2687
      2 C         142.8079  138.4838  164.8428 C.3     1  UNL1        0.0737
      3 C         144.0423  139.2930  164.5757 C.3     1  UNL1        0.0359
      4 C         144.3224  139.7990  163.1918 C.3     1  UNL1        0.0901
      5 C         143.3681  139.4959  162.0749 C.3     1  UNL1        0.1911
      6 F         143.6483  140.0020  160.6909 F       1  UNL1       -0.2343
      7 C         142.1337  138.6867  162.3420 C.3     1  UNL1        0.1092
      8 N         145.5569  140.6082  162.9246 N.3     1  UNL1       -0.2913
      9 H         145.7063  140.5930  161.9157 H       1  UNL1        0.1236
     10 C         145.6182  142.0453  163.3499 C.3     1  UNL1        0.1152
     11 C         144.4091  142.9216  163.2085 C.ar    1  UNL1        0.0765
     12 C         143.7583  143.5041  164.4280 C.ar    1  UNL1        0.0193
     13 C         142.5491  144.3804  164.2866 C.ar    1  UNL1        0.0411
     14 C         141.9906  144.6741  162.9258 C.ar    1  UNL1        0.1708
     15 C         142.6414  144.0914  161.7063 C.ar    1  UNL1        0.1682
     16 N         143.8506  143.2152  161.8477 N.ar    1  UNL1       -0.2304
     17 N         142.0829  144.3851  160.3454 N.am    1  UNL1       -0.2639
     18 C         140.8737  145.2614  160.2041 C.2     1  UNL1        0.2718
     19 O         140.3152  145.5550  158.8432 O.2     1  UNL1       -0.2707
     20 C         140.2230  145.8440  161.4235 C.3     1  UNL1        0.2898
     21 O         140.7814  145.5503  162.7844 O.3     1  UNL1       -0.4628
     22 H         142.5100  144.0027  159.5451 H       1  UNL1        0.1565
     23 C         140.6191  137.3715  163.9931 C.3     1  UNL1        0.0970
     24 C         139.4135  138.0221  164.6042 C.3     1  UNL1        0.1264
     25 C         140.4938  141.6829  166.9878 C.ar    1  UNL1        0.1403
     26 C         140.0553  143.0388  166.5200 C.ar    1  UNL1        0.0385
     27 C         139.2566  143.1746  165.2575 C.ar    1  UNL1        0.0237
     28 C         138.8965  141.9544  164.4630 C.ar    1  UNL1        0.0975
     29 N         138.0979  142.0901  163.2006 N.ar    1  UNL1       -0.2374
     30 C         137.7378  140.8699  162.4060 C.ar    1  UNL1        0.1594
     31 C         138.1763  139.5139  162.8739 C.ar    1  UNL1        0.2803
     32 O         137.8162  138.2937  162.0793 O.2     1  UNL1       -0.2653
     33 N         138.9750  139.3781  164.1363 N.ar    1  UNL1       -0.2913
     34 C         139.3351  140.5984  164.9309 C.ar    1  UNL1        0.0832
     35 C         140.1337  140.4627  166.1933 C.ar    1  UNL1        0.0557
     36 C         142.5918  142.2817  168.3984 C.3     1  UNL1        0.2525
     37 O         141.2925  141.5471  168.2503 O.3     1  UNL1       -0.4714
@<TRIPOS>BOND
     1    36    37    1
     2    37    25    1
     3    25    26   ar
     4    26    27   ar
     5    27    28   ar
     6    28    29   ar
     7    29    30   ar
     8    30    31   ar
     9    31    32    2
    10    31    33   ar
    11    33    24    1
    12    24    23    1
    13    23     1    1
    14     1     2    1
    15     2     3    1
    16     3     4    1
    17     4     8    1
    18     8    10    1
    19    10    11    1
    20    11    12   ar
    21    12    13   ar
    22    13    14   ar
    23    14    15   ar
    24    15    16   ar
    25    15    17    1
    26    17    18   am
    27    18    19    2
    28    18    20    1
    29    20    21    1
    30     4     5    1
    31     5     6    1
    32     5     7    1
    33    33    34   ar
    34    34    35   ar
    35    35    25   ar
    36    34    28   ar
    37     7     1    1
    38    16    11   ar
    39    21    14    1
    40     8     9    1
    41    17    22    1
@<TRIPOS>MOLECULE
*****
 37 41 0 0 0
SMALL
GASTEIGER

@<TRIPOS>ATOM
      1 N         138.8503  139.3989  161.5189 N.3     1  UNL1       -0.2687
      2 C         139.7463  139.6745  160.3479 C.3     1  UNL1        0.0737
      3 C         141.0560  138.9545  160.2198 C.3     1  UNL1        0.0359
      4 C         141.4695  137.9589  161.2627 C.3     1  UNL1        0.0901
      5 C         140.5735  137.6833  162.4337 C.3     1  UNL1        0.1911
      6 F         140.9872  136.6876  163.4766 F       1  UNL1       -0.2343
      7 C         139.2639  138.4033  162.5617 C.3     1  UNL1        0.1092
      8 N         142.7792  137.2388  161.1346 N.3     1  UNL1       -0.2913
      9 H         142.8410  136.9091  160.1714 H       1  UNL1        0.1236
     10 C         144.0623  137.9578  161.4294 C.3     1  UNL1        0.1152
     11 C         144.0741  139.1057  162.3948 C.ar    1  UNL1        0.0765
     12 C         144.0508  138.8439  163.8716 C.ar    1  UNL1        0.0193
     13 C         144.0626  139.9919  164.8371 C.ar    1  UNL1        0.0411
     14 C         144.0977  141.4016  164.3257 C.ar    1  UNL1        0.1708
     15 C         144.1210  141.6633  162.8489 C.ar    1  UNL1        0.1682
     16 N         144.1092  140.5154  161.8835 N.ar    1  UNL1       -0.2304
     17 N         144.1561  143.0731  162.3375 N.am    1  UNL1       -0.2639
     18 C         144.1679  144.2210  163.3030 C.2     1  UNL1        0.2718
     19 O         144.2031  145.6307  162.7917 O.2     1  UNL1       -0.2707
     20 C         144.1446  143.9592  164.7798 C.3     1  UNL1        0.2898
     21 O         144.1095  142.5495  165.2911 O.3     1  UNL1       -0.4628
     22 H         144.1715  143.2449  161.3682 H       1  UNL1        0.1565
     23 C         137.5406  140.1189  161.6469 C.3     1  UNL1        0.0970
     24 C         137.3273  141.0942  162.7665 C.3     1  UNL1        0.1264
     25 C         139.2013  140.2457  166.7687 C.ar    1  UNL1        0.1403
     26 C         140.3420  141.0888  167.2566 C.ar    1  UNL1        0.0385
     27 C         140.8580  142.2147  166.4103 C.ar    1  UNL1        0.0237
     28 C         140.2334  142.4975  165.0763 C.ar    1  UNL1        0.0975
     29 N         140.7494  143.6234  164.2301 N.ar    1  UNL1       -0.2374
     30 C         140.1247  143.9062  162.8960 C.ar    1  UNL1        0.1594
     31 C         138.9840  143.0631  162.4081 C.ar    1  UNL1        0.2803
     32 O         138.3593  143.3460  161.0740 O.2     1  UNL1       -0.2653
     33 N         138.4679  141.9372  163.2543 N.ar    1  UNL1       -0.2913
     34 C         139.0927  141.6544  164.5884 C.ar    1  UNL1        0.0832
     35 C         138.5767  140.5285  165.4346 C.ar    1  UNL1        0.0557
     36 C         137.4944  138.3273  167.1637 C.3     1  UNL1        0.2525
     37 O         138.6853  139.1198  167.6149 O.3     1  UNL1       -0.4714
@<TRIPOS>BOND
     1    36    37    1
     2    37    25    1
     3    25    26   ar
     4    26    27   ar
     5    27    28   ar
     6    28    29   ar
     7    29    30   ar
     8    30    31   ar
     9    31    32    2
    10    31    33   ar
    11    33    24    1
    12    24    23    1
    13    23     1    1
    14     1     2    1
    15     2     3    1
    16     3     4    1
    17     4     8    1
    18     8    10    1
    19    10    11    1
    20    11    12   ar
    21    12    13   ar
    22    13    14   ar
    23    14    15   ar
    24    15    16   ar
    25    15    17    1
    26    17    18   am
    27    18    19    2
    28    18    20    1
    29    20    21    1
    30     4     5    1
    31     5     6    1
    32     5     7    1
    33    33    34   ar
    34    34    35   ar
    35    35    25   ar
    36    34    28   ar
    37     7     1    1
    38    16    11   ar
    39    21    14    1
    40     8     9    1
    41    17    22    1
@<TRIPOS>MOLECULE
*****
 37 41 0 0 0
SMALL
GASTEIGER

@<TRIPOS>ATOM
      1 N         143.3485  138.8559  163.6118 N.3     1  UNL1       -0.2687
      2 C         143.0520  138.8672  162.1414 C.3     1  UNL1        0.0737
      3 C         141.7547  138.3114  161.6336 C.3     1  UNL1        0.0359
      4 C         140.7538  137.7443  162.5962 C.3     1  UNL1        0.0901
      5 C         141.0503  137.7330  164.0666 C.3     1  UNL1        0.1911
      6 F         140.0494  137.1658  165.0292 F       1  UNL1       -0.2343
      7 C         142.3477  138.2888  164.5744 C.3     1  UNL1        0.1092
      8 N         139.4563  137.1885  162.0885 N.3     1  UNL1       -0.2913
      9 H         139.3335  136.2772  162.5300 H       1  UNL1        0.1236
     10 C         138.1806  137.9482  162.3012 C.3     1  UNL1        0.1152
     11 C         138.1697  139.4435  162.1840 C.ar    1  UNL1        0.0765
     12 C         138.2806  140.0909  160.8355 C.ar    1  UNL1        0.0193
     13 C         138.2697  141.5864  160.7183 C.ar    1  UNL1        0.0411
     14 C         138.1479  142.4343  161.9497 C.ar    1  UNL1        0.1708
     15 C         138.0370  141.7868  163.2982 C.ar    1  UNL1        0.1682
     16 N         138.0479  140.2914  163.4154 N.ar    1  UNL1       -0.2304
     17 N         137.9153  142.6347  164.5296 N.am    1  UNL1       -0.2639
     18 C         137.9044  144.1301  164.4124 C.2     1  UNL1        0.2718
     19 O         137.7826  144.9780  165.6437 O.2     1  UNL1       -0.2707
     20 C         138.0153  144.7775  163.0639 C.3     1  UNL1        0.2898
     21 O         138.1370  143.9296  161.8325 O.3     1  UNL1       -0.4628
     22 H         137.8425  142.2097  165.4146 H       1  UNL1        0.1565
     23 C         144.6460  139.4117  164.1195 C.3     1  UNL1        0.0970
     24 C         144.7707  140.8777  164.4118 C.3     1  UNL1        0.1264
     25 C         142.1917  141.2246  168.0831 C.ar    1  UNL1        0.1403
     26 C         140.9735  142.0995  168.0639 C.ar    1  UNL1        0.0385
     27 C         140.6148  142.8587  166.8210 C.ar    1  UNL1        0.0237
     28 C         141.4744  142.7431  165.5972 C.ar    1  UNL1        0.0975
     29 N         141.1158  143.5023  164.3542 N.ar    1  UNL1       -0.2374
     30 C         141.9754  143.3866  163.1305 C.ar    1  UNL1        0.1594
     31 C         143.1938  142.5117  163.1496 C.ar    1  UNL1        0.2803
     32 O         144.0534  142.3961  161.9259 O.2     1  UNL1       -0.2653
     33 N         143.5524  141.7525  164.3926 N.ar    1  UNL1       -0.2913
     34 C         142.6927  141.8682  165.6164 C.ar    1  UNL1        0.0832
     35 C         143.0513  141.1090  166.8594 C.ar    1  UNL1        0.0557
     36 C         141.5510  139.5399  169.9542 C.3     1  UNL1        0.2525
     37 O         142.5504  140.4654  169.3261 O.3     1  UNL1       -0.4714
@<TRIPOS>BOND
     1    36    37    1
     2    37    25    1
     3    25    26   ar
     4    26    27   ar
     5    27    28   ar
     6    28    29   ar
     7    29    30   ar
     8    30    31   ar
     9    31    32    2
    10    31    33   ar
    11    33    24    1
    12    24    23    1
    13    23     1    1
    14     1     2    1
    15     2     3    1
    16     3     4    1
    17     4     8    1
    18     8    10    1
    19    10    11    1
    20    11    12   ar
    21    12    13   ar
    22    13    14   ar
    23    14    15   ar
    24    15    16   ar
    25    15    17    1
    26    17    18   am
    27    18    19    2
    28    18    20    1
    29    20    21    1
    30     4     5    1
    31     5     6    1
    32     5     7    1
    33    33    34   ar
    34    34    35   ar
    35    35    25   ar
    36    34    28   ar
    37     7     1    1
    38    16    11   ar
    39    21    14    1
    40     8     9    1
    41    17    22    1
@<TRIPOS>MOLECULE
*****
 37 41 0 0 0
SMALL
GASTEIGER

@<TRIPOS>ATOM
      1 N         138.3611  140.2965  163.7817 N.3     1  UNL1       -0.2687
      2 C         138.1984  141.3761  164.8103 C.3     1  UNL1        0.0737
      3 C         137.9828  142.7965  164.3791 C.3     1  UNL1        0.0359
      4 C         137.9298  143.1373  162.9193 C.3     1  UNL1        0.0901
      5 C         138.0925  142.0577  161.8907 C.3     1  UNL1        0.1911
      6 F         138.0395  142.3985  160.4309 F       1  UNL1       -0.2343
      7 C         138.3081  140.6373  162.3219 C.3     1  UNL1        0.1092
      8 N         137.7142  144.5577  162.4881 N.3     1  UNL1       -0.2913
      9 H         137.0424  144.9643  163.1389 H       1  UNL1        0.1236
     10 C         138.8756  145.5044  162.4169 C.3     1  UNL1        0.1152
     11 C         140.2756  144.9702  162.3487 C.ar    1  UNL1        0.0765
     12 C         141.1974  145.1306  163.5211 C.ar    1  UNL1        0.0193
     13 C         142.5974  144.5964  163.4530 C.ar    1  UNL1        0.0411
     14 C         143.0756  143.9019  162.2124 C.ar    1  UNL1        0.1708
     15 C         142.1537  143.7415  161.0400 C.ar    1  UNL1        0.1682
     16 N         140.7537  144.2757  161.1082 N.ar    1  UNL1       -0.2304
     17 N         142.6318  143.0470  159.7995 N.am    1  UNL1       -0.2639
     18 C         144.0319  142.5128  159.7313 C.2     1  UNL1        0.2718
     19 O         144.5101  141.8182  158.4908 O.2     1  UNL1       -0.2707
     20 C         144.9537  142.6731  160.9037 C.3     1  UNL1        0.2898
     21 O         144.4755  143.3677  162.1442 O.3     1  UNL1       -0.4628
     22 H         142.0268  142.9417  159.0300 H       1  UNL1        0.1565
     23 C         138.5767  138.8760  164.2129 C.3     1  UNL1        0.0970
     24 C         139.8510  138.4866  164.9016 C.3     1  UNL1        0.1264
     25 C         142.0468  141.8719  166.8935 C.ar    1  UNL1        0.1403
     26 C         143.3655  142.3343  166.3484 C.ar    1  UNL1        0.0385
     27 C         143.9523  141.6682  165.1392 C.ar    1  UNL1        0.0237
     28 C         143.2204  140.5398  164.4753 C.ar    1  UNL1        0.0975
     29 N         143.8072  139.8737  163.2661 N.ar    1  UNL1       -0.2374
     30 C         143.0753  138.7453  162.6022 C.ar    1  UNL1        0.1594
     31 C         141.7565  138.2828  163.1473 C.ar    1  UNL1        0.2803
     32 O         141.0246  137.1544  162.4833 O.2     1  UNL1       -0.2653
     33 N         141.1697  138.9489  164.3564 N.ar    1  UNL1       -0.2913
     34 C         141.9017  140.0774  165.0204 C.ar    1  UNL1        0.0832
     35 C         141.3149  140.7435  166.2296 C.ar    1  UNL1        0.0557
     36 C         140.3745  141.8564  168.8818 C.3     1  UNL1        0.2525
     37 O         141.4600  142.5380  168.1027 O.3     1  UNL1       -0.4714
@<TRIPOS>BOND
     1    36    37    1
     2    37    25    1
     3    25    26   ar
     4    26    27   ar
     5    27    28   ar
     6    28    29   ar
     7    29    30   ar
     8    30    31   ar
     9    31    32    2
    10    31    33   ar
    11    33    24    1
    12    24    23    1
    13    23     1    1
    14     1     2    1
    15     2     3    1
    16     3     4    1
    17     4     8    1
    18     8    10    1
    19    10    11    1
    20    11    12   ar
    21    12    13   ar
    22    13    14   ar
    23    14    15   ar
    24    15    16   ar
    25    15    17    1
    26    17    18   am
    27    18    19    2
    28    18    20    1
    29    20    21    1
    30     4     5    1
    31     5     6    1
    32     5     7    1
    33    33    34   ar
    34    34    35   ar
    35    35    25   ar
    36    34    28   ar
    37     7     1    1
    38    16    11   ar
    39    21    14    1
    40     8     9    1
    41    17    22    1
@<TRIPOS>MOLECULE
*****
 37 41 0 0 0
SMALL
GASTEIGER

@<TRIPOS>ATOM
      1 N         142.3884  144.5015  163.4857 N.3     1  UNL1       -0.2687
      2 C         142.3347  144.2517  162.0076 C.3     1  UNL1        0.0737
      3 C         141.0164  144.0051  161.3360 C.3     1  UNL1        0.0359
      4 C         139.7517  144.0084  162.1425 C.3     1  UNL1        0.0901
      5 C         139.8053  144.2583  163.6206 C.3     1  UNL1        0.1911
      6 F         138.5405  144.2615  164.4270 F       1  UNL1       -0.2343
      7 C         141.1236  144.5048  164.2922 C.3     1  UNL1        0.1092
      8 N         138.4332  143.7618  161.4709 N.3     1  UNL1       -0.2913
      9 H         138.3552  144.4434  160.7161 H       1  UNL1        0.1236
     10 C         138.1354  142.4184  160.8737 C.3     1  UNL1        0.1152
     11 C         138.3259  141.1754  161.6913 C.ar    1  UNL1        0.0765
     12 C         138.8161  139.9167  161.0391 C.ar    1  UNL1        0.0193
     13 C         139.0067  138.6735  161.8566 C.ar    1  UNL1        0.0411
     14 C         138.7071  138.6891  163.3263 C.ar    1  UNL1        0.1708
     15 C         138.2170  139.9479  163.9785 C.ar    1  UNL1        0.1682
     16 N         138.0264  141.1910  163.1610 N.ar    1  UNL1       -0.2304
     17 N         137.9174  139.9635  165.4482 N.am    1  UNL1       -0.2639
     18 C         138.1080  138.7203  166.2657 C.2     1  UNL1        0.2718
     19 O         137.8085  138.7360  167.7354 O.2     1  UNL1       -0.2707
     20 C         138.5982  137.4616  165.6135 C.3     1  UNL1        0.2898
     21 O         138.8977  137.4460  164.1438 O.3     1  UNL1       -0.4628
     22 H         137.5957  140.7897  165.8762 H       1  UNL1        0.1565
     23 C         143.7068  144.7481  164.1573 C.3     1  UNL1        0.0970
     24 C         144.4652  143.6047  164.7635 C.3     1  UNL1        0.1264
     25 C         141.8459  141.6378  167.8491 C.ar    1  UNL1        0.1403
     26 C         141.3715  140.2299  167.6426 C.ar    1  UNL1        0.0385
     27 C         141.7702  139.4775  166.4077 C.ar    1  UNL1        0.0237
     28 C         142.6432  140.1331  165.3792 C.ar    1  UNL1        0.0975
     29 N         143.0419  139.3808  164.1443 N.ar    1  UNL1       -0.2374
     30 C         143.9150  140.0364  163.1157 C.ar    1  UNL1        0.1594
     31 C         144.3894  141.4444  163.3221 C.ar    1  UNL1        0.2803
     32 O         145.2625  142.1000  162.2936 O.2     1  UNL1       -0.2653
     33 N         143.9908  142.1967  164.5571 N.ar    1  UNL1       -0.2913
     34 C         143.1176  141.5411  165.5856 C.ar    1  UNL1        0.0832
     35 C         142.7190  142.2934  166.8205 C.ar    1  UNL1        0.0557
     36 C         142.4770  142.7302  170.1203 C.3     1  UNL1        0.2525
     37 O         141.4472  142.3901  169.0840 O.3     1  UNL1       -0.4714
@<TRIPOS>BOND
     1    36    37    1
     2    37    25    1
     3    25    26   ar
     4    26    27   ar
     5    27    28   ar
     6    28    29   ar
     7    29    30   ar
     8    30    31   ar
     9    31    32    2
    10    31    33   ar
    11    33    24    1
    12    24    23    1
    13    23     1    1
    14     1     2    1
    15     2     3    1
    16     3     4    1
    17     4     8    1
    18     8    10    1
    19    10    11    1
    20    11    12   ar
    21    12    13   ar
    22    13    14   ar
    23    14    15   ar
    24    15    16   ar
    25    15    17    1
    26    17    18   am
    27    18    19    2
    28    18    20    1
    29    20    21    1
    30     4     5    1
    31     5     6    1
    32     5     7    1
    33    33    34   ar
    34    34    35   ar
    35    35    25   ar
    36    34    28   ar
    37     7     1    1
    38    16    11   ar
    39    21    14    1
    40     8     9    1
    41    17    22    1
@<TRIPOS>MOLECULE
*****
 37 41 0 0 0
SMALL
GASTEIGER

@<TRIPOS>ATOM
      1 N         143.2789  139.0207  161.6691 N.3     1  UNL1       -0.2687
      2 C         143.6665  138.7209  163.0867 C.3     1  UNL1        0.0737
      3 C         144.5301  139.6829  163.8476 C.3     1  UNL1        0.0359
      4 C         145.0059  140.9446  163.1908 C.3     1  UNL1        0.0901
      5 C         144.6182  141.2444  161.7731 C.3     1  UNL1        0.1911
      6 F         145.0941  142.5063  161.1163 F       1  UNL1       -0.2343
      7 C         143.7547  140.2825  161.0122 C.3     1  UNL1        0.1092
      8 N         145.8695  141.9066  163.9516 N.3     1  UNL1       -0.2913
      9 H         146.4460  142.3919  163.2642 H       1  UNL1        0.1236
     10 C         145.2391  142.9624  164.8108 C.3     1  UNL1        0.1152
     11 C         143.7698  143.2421  164.6985 C.ar    1  UNL1        0.0765
     12 C         142.8109  142.6151  165.6666 C.ar    1  UNL1        0.0193
     13 C         141.3414  142.8948  165.5543 C.ar    1  UNL1        0.0411
     14 C         140.8309  143.8015  164.4739 C.ar    1  UNL1        0.1708
     15 C         141.7900  144.4285  163.5057 C.ar    1  UNL1        0.1682
     16 N         143.2593  144.1488  163.6180 N.ar    1  UNL1       -0.2304
     17 N         141.2795  145.3352  162.4253 N.am    1  UNL1       -0.2639
     18 C         139.8100  145.6149  162.3131 C.2     1  UNL1        0.2718
     19 O         139.2996  146.5217  161.2326 O.2     1  UNL1       -0.2707
     20 C         138.8511  144.9879  163.2812 C.3     1  UNL1        0.2898
     21 O         139.3616  144.0812  164.3616 O.3     1  UNL1       -0.4628
     22 H         141.9089  145.7468  161.7899 H       1  UNL1        0.1565
     23 C         142.4153  138.0587  160.9082 C.3     1  UNL1        0.0970
     24 C         141.0664  137.6776  161.4424 C.3     1  UNL1        0.1264
     25 C         139.5171  139.7089  165.1469 C.ar    1  UNL1        0.1403
     26 C         138.3723  140.6733  165.0503 C.ar    1  UNL1        0.0385
     27 C         137.7440  140.9606  163.7189 C.ar    1  UNL1        0.0237
     28 C         138.2604  140.2835  162.4841 C.ar    1  UNL1        0.0975
     29 N         137.6321  140.5708  161.1527 N.ar    1  UNL1       -0.2374
     30 C         138.1485  139.8938  159.9179 C.ar    1  UNL1        0.1594
     31 C         139.2933  138.9293  160.0144 C.ar    1  UNL1        0.2803
     32 O         139.8098  138.2522  158.7796 O.2     1  UNL1       -0.2653
     33 N         139.9217  138.6420  161.3458 N.ar    1  UNL1       -0.2913
     34 C         139.4052  139.3191  162.5807 C.ar    1  UNL1        0.0832
     35 C         140.0335  139.0318  163.9121 C.ar    1  UNL1        0.0557
     36 C         139.6146  140.0816  167.7162 C.3     1  UNL1        0.2525
     37 O         140.1454  139.4215  166.4783 O.3     1  UNL1       -0.4714
@<TRIPOS>BOND
     1    36    37    1
     2    37    25    1
     3    25    26   ar
     4    26    27   ar
     5    27    28   ar
     6    28    29   ar
     7    29    30   ar
     8    30    31   ar
     9    31    32    2
    10    31    33   ar
    11    33    24    1
    12    24    23    1
    13    23     1    1
    14     1     2    1
    15     2     3    1
    16     3     4    1
    17     4     8    1
    18     8    10    1
    19    10    11    1
    20    11    12   ar
    21    12    13   ar
    22    13    14   ar
    23    14    15   ar
    24    15    16   ar
    25    15    17    1
    26    17    18   am
    27    18    19    2
    28    18    20    1
    29    20    21    1
    30     4     5    1
    31     5     6    1
    32     5     7    1
    33    33    34   ar
    34    34    35   ar
    35    35    25   ar
    36    34    28   ar
    37     7     1    1
    38    16    11   ar
    39    21    14    1
    40     8     9    1
    41    17    22    1
