@<TRIPOS>MOLECULE
*****
 36 39 0 0 0
SMALL
GASTEIGER

@<TRIPOS>ATOM
      1 C         142.5553  139.6297  159.8345 C.ar    1  UNL1        0.1194
      2 C         141.2849  140.4191  159.9479 C.ar    1  UNL1        0.1452
      3 N         140.5713  140.8736  158.7093 N.pl3   1  UNL1       -0.3415
      4 N         140.7282  140.7540  161.2999 N.ar    1  UNL1       -0.1940
      5 C         141.4418  140.2995  162.5385 C.ar    1  UNL1        0.2554
      6 N         142.7123  139.5100  162.4250 N.ar    1  UNL1       -0.1940
      7 C         143.2690  139.1751  161.0730 C.ar    1  UNL1        0.1452
      8 N         144.5394  138.3857  160.9597 N.pl3   1  UNL1       -0.3415
      9 H         140.9367  140.6539  157.8220 H       1  UNL1        0.1438
     10 H         139.7375  141.3918  158.7838 H       1  UNL1        0.1438
     11 H         145.0078  138.0874  161.7726 H       1  UNL1        0.1438
     12 H         144.9048  138.1659  160.0723 H       1  UNL1        0.1438
     13 N         140.8850  140.6343  163.8905 N.ar    1  UNL1       -0.1967
     14 N         141.1328  141.8995  164.6573 N.ar    1  UNL1       -0.1666
     15 C         140.3836  141.8098  165.9538 C.ar    1  UNL1        0.0849
     16 C         139.6730  140.4893  165.9882 C.ar    1  UNL1        0.0334
     17 C         138.7837  139.8546  167.0159 C.ar    1  UNL1        0.0027
     18 C         138.2044  138.4933  166.7685 C.ar    1  UNL1        0.0001
     19 C         138.5142  137.7668  165.4932 C.ar    1  UNL1        0.0015
     20 C         139.4035  138.4016  164.4655 C.ar    1  UNL1        0.0193
     21 C         139.9829  139.7628  164.7130 C.ar    1  UNL1        0.0870
     22 C         140.3509  142.8569  167.0273 C.3     1  UNL1        0.0762
     23 C         140.9392  142.5666  168.3764 C.ar    1  UNL1        0.0136
     24 C         140.0400  142.3798  169.5623 C.ar    1  UNL1       -0.0015
     25 C         140.6281  142.0895  170.9113 C.ar    1  UNL1        0.0021
     26 C         142.1157  141.9859  171.0742 C.ar    1  UNL1        0.0319
     27 C         143.0149  142.1726  169.8883 C.ar    1  UNL1        0.1671
     28 F         144.5024  142.0691  170.0513 F       1  UNL1       -0.2018
     29 C         142.4267  142.4630  168.5394 C.ar    1  UNL1        0.1637
     30 F         143.3260  142.6497  167.3534 F       1  UNL1       -0.2021
     31 C         144.0790  140.2289  157.8173 C.2     1  UNL1        0.4090
     32 O         144.4893  141.4977  158.5041 O.2     1  UNL1       -0.2258
     33 N         143.1121  139.2948  158.4825 N.am    1  UNL1       -0.2181
     34 C         142.7018  138.0259  157.7957 C.3     1  UNL1        0.1237
     35 C         144.3159  140.7640  155.2859 C.3     1  UNL1        0.2574
     36 O         144.6358  139.8941  156.4653 O.3     1  UNL1       -0.4302
@<TRIPOS>BOND
     1    35    36    1
     2    36    31    1
     3    31    32    2
     4    31    33   am
     5    33    34    1
     6    33     1    1
     7     1     2   ar
     8     2     3    1
     9     2     4   ar
    10     4     5   ar
    11     5    13    1
    12    13    14   ar
    13    14    15   ar
    14    15    22    1
    15    22    23    1
    16    23    24   ar
    17    24    25   ar
    18    25    26   ar
    19    26    27   ar
    20    27    28    1
    21    27    29   ar
    22    29    30    1
    23    15    16   ar
    24    16    17   ar
    25    17    18   ar
    26    18    19   ar
    27    19    20   ar
    28    20    21   ar
    29     5     6   ar
    30     6     7   ar
    31     7     8    1
    32     7     1   ar
    33    21    13   ar
    34    29    23   ar
    35    21    16   ar
    36     3     9    1
    37     3    10    1
    38     8    11    1
    39     8    12    1
@<TRIPOS>MOLECULE
*****
 36 39 0 0 0
SMALL
GASTEIGER

@<TRIPOS>ATOM
      1 C         140.6289  144.7332  157.6259 C.ar    1  UNL1        0.1194
      2 C         139.7152  143.7738  158.3292 C.ar    1  UNL1        0.1452
      3 N         138.6029  143.1076  157.5749 N.pl3   1  UNL1       -0.3415
      4 N         139.9138  143.4806  159.7868 N.ar    1  UNL1       -0.1940
      5 C         141.0260  144.1467  160.5412 C.ar    1  UNL1        0.2554
      6 N         141.9397  145.1062  159.8378 N.ar    1  UNL1       -0.1940
      7 C         141.7411  145.3994  158.3802 C.ar    1  UNL1        0.1452
      8 N         142.6549  146.3588  157.6770 N.pl3   1  UNL1       -0.3415
      9 H         138.4726  143.3000  156.6183 H       1  UNL1        0.1438
     10 H         138.0032  142.4778  158.0365 H       1  UNL1        0.1438
     11 H         143.3849  146.7961  158.1722 H       1  UNL1        0.1438
     12 H         142.5246  146.5513  156.7204 H       1  UNL1        0.1438
     13 N         141.2246  143.8535  161.9988 N.ar    1  UNL1       -0.1967
     14 N         142.5059  143.4142  162.6432 N.ar    1  UNL1       -0.1666
     15 C         142.2499  143.2373  164.1105 C.ar    1  UNL1        0.0849
     16 C         140.8103  143.5673  164.3730 C.ar    1  UNL1        0.0334
     17 C         139.9947  143.5702  165.6319 C.ar    1  UNL1        0.0027
     18 C         138.5454  143.9540  165.5855 C.ar    1  UNL1        0.0001
     19 C         137.9117  144.3348  164.2804 C.ar    1  UNL1        0.0015
     20 C         138.7274  144.3319  163.0216 C.ar    1  UNL1        0.0193
     21 C         140.1767  143.9482  163.0679 C.ar    1  UNL1        0.0870
     22 C         143.2566  142.8061  165.1355 C.3     1  UNL1        0.0762
     23 C         143.2741  141.3860  165.6185 C.ar    1  UNL1        0.0136
     24 C         143.8882  140.3126  164.7696 C.ar    1  UNL1       -0.0015
     25 C         143.9057  138.8926  165.2526 C.ar    1  UNL1        0.0021
     26 C         143.3092  138.5461  166.5845 C.ar    1  UNL1        0.0319
     27 C         142.6951  139.6195  167.4334 C.ar    1  UNL1        0.1671
     28 F         142.0985  139.2730  168.7653 F       1  UNL1       -0.2018
     29 C         142.6776  141.0395  166.9505 C.ar    1  UNL1        0.1637
     30 F         142.0635  142.1129  167.7994 F       1  UNL1       -0.2021
     31 C         139.7347  146.2860  155.7448 C.2     1  UNL1        0.4090
     32 O         139.2377  147.2524  156.7787 O.2     1  UNL1       -0.2258
     33 N         140.4303  145.0264  156.1683 N.am    1  UNL1       -0.2181
     34 C         140.9273  144.0600  155.1344 C.3     1  UNL1        0.1237
     35 C         140.4885  147.4883  153.5684 C.3     1  UNL1        0.2574
     36 O         139.5360  146.5793  154.2872 O.3     1  UNL1       -0.4302
@<TRIPOS>BOND
     1    35    36    1
     2    36    31    1
     3    31    32    2
     4    31    33   am
     5    33    34    1
     6    33     1    1
     7     1     2   ar
     8     2     3    1
     9     2     4   ar
    10     4     5   ar
    11     5    13    1
    12    13    14   ar
    13    14    15   ar
    14    15    22    1
    15    22    23    1
    16    23    24   ar
    17    24    25   ar
    18    25    26   ar
    19    26    27   ar
    20    27    28    1
    21    27    29   ar
    22    29    30    1
    23    15    16   ar
    24    16    17   ar
    25    17    18   ar
    26    18    19   ar
    27    19    20   ar
    28    20    21   ar
    29     5     6   ar
    30     6     7   ar
    31     7     8    1
    32     7     1   ar
    33    21    13   ar
    34    29    23   ar
    35    21    16   ar
    36     3     9    1
    37     3    10    1
    38     8    11    1
    39     8    12    1
@<TRIPOS>MOLECULE
*****
 36 39 0 0 0
SMALL
GASTEIGER

@<TRIPOS>ATOM
      1 C         140.5927  144.6249  157.7093 C.ar    1  UNL1        0.1194
      2 C         141.6946  145.3374  158.4361 C.ar    1  UNL1        0.1452
      3 N         142.5760  146.3032  157.7010 N.pl3   1  UNL1       -0.3415
      4 N         141.9152  145.0841  159.8980 N.ar    1  UNL1       -0.1940
      5 C         141.0339  144.1184  160.6332 C.ar    1  UNL1        0.2554
      6 N         139.9319  143.4059  159.9064 N.ar    1  UNL1       -0.1940
      7 C         139.7114  143.6592  158.4445 C.ar    1  UNL1        0.1452
      8 N         138.6095  142.9466  157.7178 N.pl3   1  UNL1       -0.3415
      9 H         142.4313  146.4694  156.7414 H       1  UNL1        0.1438
     10 H         143.2992  146.7708  158.1779 H       1  UNL1        0.1438
     11 H         138.0310  142.3128  158.2004 H       1  UNL1        0.1438
     12 H         138.4647  143.1128  156.7583 H       1  UNL1        0.1438
     13 N         141.2544  143.8651  162.0952 N.ar    1  UNL1       -0.1967
     14 N         142.5552  143.4842  162.7376 N.ar    1  UNL1       -0.1666
     15 C         142.3175  143.3319  164.2108 C.ar    1  UNL1        0.0849
     16 C         140.8698  143.6188  164.4788 C.ar    1  UNL1        0.0334
     17 C         140.0650  143.6225  165.7446 C.ar    1  UNL1        0.0027
     18 C         138.6031  143.9557  165.7028 C.ar    1  UNL1        0.0001
     19 C         137.9460  144.2852  164.3953 C.ar    1  UNL1        0.0015
     20 C         138.7508  144.2815  163.1295 C.ar    1  UNL1        0.0193
     21 C         140.2127  143.9483  163.1713 C.ar    1  UNL1        0.0870
     22 C         143.3468  142.9584  165.2360 C.3     1  UNL1        0.0762
     23 C         143.1270  141.7665  166.1198 C.ar    1  UNL1        0.0136
     24 C         142.8283  141.9583  167.5772 C.ar    1  UNL1       -0.0015
     25 C         142.6085  140.7665  168.4610 C.ar    1  UNL1        0.0021
     26 C         142.6873  139.3828  167.8874 C.ar    1  UNL1        0.0319
     27 C         142.9860  139.1909  166.4301 C.ar    1  UNL1        0.1671
     28 F         143.0648  137.8071  165.8565 F       1  UNL1       -0.2018
     29 C         143.2058  140.3827  165.5462 C.ar    1  UNL1        0.1637
     30 F         143.5045  140.1908  164.0888 F       1  UNL1       -0.2021
     31 C         139.7735  146.1763  155.7932 C.2     1  UNL1        0.4090
     32 O         139.3953  147.2211  156.8008 O.2     1  UNL1       -0.2258
     33 N         140.3722  144.8782  156.2474 N.am    1  UNL1       -0.2181
     34 C         140.7504  143.8334  155.2398 C.3     1  UNL1        0.1237
     35 C         140.3940  147.4408  153.6100 C.3     1  UNL1        0.2574
     36 O         139.5530  146.4297  154.3313 O.3     1  UNL1       -0.4302
@<TRIPOS>BOND
     1    35    36    1
     2    36    31    1
     3    31    32    2
     4    31    33   am
     5    33    34    1
     6    33     1    1
     7     1     2   ar
     8     2     3    1
     9     2     4   ar
    10     4     5   ar
    11     5    13    1
    12    13    14   ar
    13    14    15   ar
    14    15    22    1
    15    22    23    1
    16    23    24   ar
    17    24    25   ar
    18    25    26   ar
    19    26    27   ar
    20    27    28    1
    21    27    29   ar
    22    29    30    1
    23    15    16   ar
    24    16    17   ar
    25    17    18   ar
    26    18    19   ar
    27    19    20   ar
    28    20    21   ar
    29     5     6   ar
    30     6     7   ar
    31     7     8    1
    32     7     1   ar
    33    21    13   ar
    34    29    23   ar
    35    21    16   ar
    36     3     9    1
    37     3    10    1
    38     8    11    1
    39     8    12    1
@<TRIPOS>MOLECULE
*****
 36 39 0 0 0
SMALL
GASTEIGER

@<TRIPOS>ATOM
      1 C         143.4765  142.0574  158.5814 C.ar    1  UNL1        0.1194
      2 C         143.4742  140.9014  159.5372 C.ar    1  UNL1        0.1452
      3 N         143.9317  139.5484  159.0789 N.pl3   1  UNL1       -0.3415
      4 N         143.0144  141.0984  160.9514 N.ar    1  UNL1       -0.1940
      5 C         142.5569  142.4513  161.4097 C.ar    1  UNL1        0.2554
      6 N         142.5592  143.6074  160.4539 N.ar    1  UNL1       -0.1940
      7 C         143.0190  143.4104  159.0397 C.ar    1  UNL1        0.1452
      8 N         143.0213  144.5664  158.0840 N.pl3   1  UNL1       -0.3415
      9 H         144.2334  139.4191  158.1508 H       1  UNL1        0.1438
     10 H         143.9302  138.7896  159.7063 H       1  UNL1        0.1438
     11 H         142.7210  145.4544  158.3848 H       1  UNL1        0.1438
     12 H         143.3231  144.4372  157.1558 H       1  UNL1        0.1438
     13 N         142.0971  142.6483  162.8239 N.ar    1  UNL1       -0.1967
     14 N         142.8191  142.1928  164.0573 N.ar    1  UNL1       -0.1666
     15 C         142.0027  142.5984  165.2485 C.ar    1  UNL1        0.0849
     16 C         140.7763  143.3046  164.7514 C.ar    1  UNL1        0.0334
     17 C         139.6140  143.9235  165.4696 C.ar    1  UNL1        0.0027
     18 C         138.5100  144.5733  164.6893 C.ar    1  UNL1        0.0001
     19 C         138.5683  144.6042  163.1907 C.ar    1  UNL1        0.0015
     20 C         139.7307  143.9852  162.4725 C.ar    1  UNL1        0.0193
     21 C         140.8346  143.3355  163.2528 C.ar    1  UNL1        0.0870
     22 C         142.3516  142.3427  166.6848 C.3     1  UNL1        0.0762
     23 C         141.3411  141.7211  167.6029 C.ar    1  UNL1        0.0136
     24 C         140.4899  140.5838  167.1214 C.ar    1  UNL1       -0.0015
     25 C         139.4795  139.9622  168.0394 C.ar    1  UNL1        0.0021
     26 C         139.3203  140.4781  169.4389 C.ar    1  UNL1        0.0319
     27 C         140.1715  141.6154  169.9203 C.ar    1  UNL1        0.1671
     28 F         140.0123  142.1313  171.3198 F       1  UNL1       -0.2018
     29 C         141.1819  142.2370  169.0024 C.ar    1  UNL1        0.1637
     30 F         142.0332  143.3743  169.4839 F       1  UNL1       -0.2021
     31 C         145.3426  142.2103  156.7803 C.2     1  UNL1        0.4090
     32 O         146.2891  142.7572  157.8074 O.2     1  UNL1       -0.2258
     33 N         143.9363  141.8604  157.1673 N.am    1  UNL1       -0.2181
     34 C         142.9898  141.3135  156.1402 C.3     1  UNL1        0.1237
     35 C         147.0552  142.6832  154.8846 C.3     1  UNL1        0.2574
     36 O         145.8025  142.0133  155.3662 O.3     1  UNL1       -0.4302
@<TRIPOS>BOND
     1    35    36    1
     2    36    31    1
     3    31    32    2
     4    31    33   am
     5    33    34    1
     6    33     1    1
     7     1     2   ar
     8     2     3    1
     9     2     4   ar
    10     4     5   ar
    11     5    13    1
    12    13    14   ar
    13    14    15   ar
    14    15    22    1
    15    22    23    1
    16    23    24   ar
    17    24    25   ar
    18    25    26   ar
    19    26    27   ar
    20    27    28    1
    21    27    29   ar
    22    29    30    1
    23    15    16   ar
    24    16    17   ar
    25    17    18   ar
    26    18    19   ar
    27    19    20   ar
    28    20    21   ar
    29     5     6   ar
    30     6     7   ar
    31     7     8    1
    32     7     1   ar
    33    21    13   ar
    34    29    23   ar
    35    21    16   ar
    36     3     9    1
    37     3    10    1
    38     8    11    1
    39     8    12    1
@<TRIPOS>MOLECULE
*****
 36 39 0 0 0
SMALL
GASTEIGER

@<TRIPOS>ATOM
      1 C         140.6131  144.6911  157.6754 C.ar    1  UNL1        0.1194
      2 C         141.7060  145.3751  158.4420 C.ar    1  UNL1        0.1452
      3 N         142.6278  146.3301  157.7433 N.pl3   1  UNL1       -0.3415
      4 N         141.8772  145.1041  159.9074 N.ar    1  UNL1       -0.1940
      5 C         140.9555  144.1492  160.6062 C.ar    1  UNL1        0.2554
      6 N         139.8625  143.4651  159.8396 N.ar    1  UNL1       -0.1940
      7 C         139.6913  143.7362  158.3742 C.ar    1  UNL1        0.1452
      8 N         138.5984  143.0521  157.6077 N.pl3   1  UNL1       -0.3415
      9 H         142.5155  146.5080  156.7815 H       1  UNL1        0.1438
     10 H         143.3452  146.7790  158.2464 H       1  UNL1        0.1438
     11 H         137.9934  142.4254  158.0664 H       1  UNL1        0.1438
     12 H         138.4860  143.2300  156.6460 H       1  UNL1        0.1438
     13 N         141.1266  143.8781  162.0715 N.ar    1  UNL1       -0.1967
     14 N         140.0649  144.0116  163.1227 N.ar    1  UNL1       -0.1666
     15 C         140.6717  143.6420  164.4438 C.ar    1  UNL1        0.0849
     16 C         142.1084  143.2801  164.2091 C.ar    1  UNL1        0.0334
     17 C         143.1969  142.8366  165.1410 C.ar    1  UNL1        0.0027
     18 C         144.5665  142.5391  164.6067 C.ar    1  UNL1        0.0001
     19 C         144.8476  142.6850  163.1405 C.ar    1  UNL1        0.0015
     20 C         143.7592  143.1285  162.2086 C.ar    1  UNL1        0.0193
     21 C         142.3895  143.4261  162.7429 C.ar    1  UNL1        0.0870
     22 C         139.9658  143.6354  165.7673 C.3     1  UNL1        0.0762
     23 C         140.0103  142.4125  166.6350 C.ar    1  UNL1        0.0136
     24 C         140.6604  142.4744  167.9854 C.ar    1  UNL1       -0.0015
     25 C         140.7049  141.2517  168.8531 C.ar    1  UNL1        0.0021
     26 C         140.0993  139.9671  168.3704 C.ar    1  UNL1        0.0319
     27 C         139.4493  139.9052  167.0200 C.ar    1  UNL1        0.1671
     28 F         138.8437  138.6206  166.5372 F       1  UNL1       -0.2018
     29 C         139.4047  141.1279  166.1523 C.ar    1  UNL1        0.1637
     30 F         138.7547  141.0661  164.8019 F       1  UNL1       -0.2021
     31 C         139.7682  146.2224  155.7542 C.2     1  UNL1        0.4090
     32 O         139.2656  147.2115  156.7636 O.2     1  UNL1       -0.2258
     33 N         140.4420  144.9622  156.2101 N.am    1  UNL1       -0.2181
     34 C         140.9446  143.9730  155.2007 C.3     1  UNL1        0.1237
     35 C         140.4312  147.5442  153.6180 C.3     1  UNL1        0.2574
     36 O         139.5970  146.4935  154.2888 O.3     1  UNL1       -0.4302
@<TRIPOS>BOND
     1    35    36    1
     2    36    31    1
     3    31    32    2
     4    31    33   am
     5    33    34    1
     6    33     1    1
     7     1     2   ar
     8     2     3    1
     9     2     4   ar
    10     4     5   ar
    11     5    13    1
    12    13    14   ar
    13    14    15   ar
    14    15    22    1
    15    22    23    1
    16    23    24   ar
    17    24    25   ar
    18    25    26   ar
    19    26    27   ar
    20    27    28    1
    21    27    29   ar
    22    29    30    1
    23    15    16   ar
    24    16    17   ar
    25    17    18   ar
    26    18    19   ar
    27    19    20   ar
    28    20    21   ar
    29     5     6   ar
    30     6     7   ar
    31     7     8    1
    32     7     1   ar
    33    21    13   ar
    34    29    23   ar
    35    21    16   ar
    36     3     9    1
    37     3    10    1
    38     8    11    1
    39     8    12    1
@<TRIPOS>MOLECULE
*****
 36 39 0 0 0
SMALL
GASTEIGER

@<TRIPOS>ATOM
      1 C         140.5552  144.6563  157.7823 C.ar    1  UNL1        0.1194
      2 C         139.6388  143.7072  158.4962 C.ar    1  UNL1        0.1452
      3 N         138.5389  143.0183  157.7442 N.pl3   1  UNL1       -0.3415
      4 N         139.8224  143.4472  159.9620 N.ar    1  UNL1       -0.1940
      5 C         140.9222  144.1361  160.7140 C.ar    1  UNL1        0.2554
      6 N         141.8387  145.0852  160.0001 N.ar    1  UNL1       -0.1940
      7 C         141.6551  145.3452  158.5343 C.ar    1  UNL1        0.1452
      8 N         142.5715  146.2943  157.8205 N.pl3   1  UNL1       -0.3415
      9 H         138.4185  143.1889  156.7821 H       1  UNL1        0.1438
     10 H         137.9375  142.3954  158.2127 H       1  UNL1        0.1438
     11 H         143.2934  146.7464  158.3141 H       1  UNL1        0.1438
     12 H         142.4511  146.4650  156.8584 H       1  UNL1        0.1438
     13 N         141.1058  143.8760  162.1799 N.ar    1  UNL1       -0.1967
     14 N         140.0485  144.0005  163.2366 N.ar    1  UNL1       -0.1666
     15 C         140.6682  143.6472  164.5561 C.ar    1  UNL1        0.0849
     16 C         142.1084  143.3044  164.3149 C.ar    1  UNL1        0.0334
     17 C         143.2086  142.8818  165.2429 C.ar    1  UNL1        0.0027
     18 C         144.5791  142.6006  164.7022 C.ar    1  UNL1        0.0001
     19 C         144.8496  142.7420  163.2335 C.ar    1  UNL1        0.0015
     20 C         143.7495  143.1646  162.3056 C.ar    1  UNL1        0.0193
     21 C         142.3789  143.4459  162.8463 C.ar    1  UNL1        0.0870
     22 C         139.9702  143.6383  165.8838 C.3     1  UNL1        0.0762
     23 C         139.9853  142.4004  166.7308 C.ar    1  UNL1        0.0136
     24 C         139.7884  141.0553  166.0967 C.ar    1  UNL1       -0.0015
     25 C         139.8035  139.8174  166.9436 C.ar    1  UNL1        0.0021
     26 C         140.0156  139.9246  168.4247 C.ar    1  UNL1        0.0319
     27 C         140.2125  141.2696  169.0588 C.ar    1  UNL1        0.1671
     28 F         140.4245  141.3768  170.5398 F       1  UNL1       -0.2018
     29 C         140.1974  142.5075  168.2119 C.ar    1  UNL1        0.1637
     30 F         140.3943  143.8526  168.8459 F       1  UNL1       -0.2021
     31 C         139.7151  146.1840  155.8562 C.2     1  UNL1        0.4090
     32 O         139.2420  147.1916  156.8617 O.2     1  UNL1       -0.2258
     33 N         140.3716  144.9163  156.3165 N.am    1  UNL1       -0.2181
     34 C         140.8447  143.9087  155.3110 C.3     1  UNL1        0.1237
     35 C         140.5354  147.2717  153.6439 C.3     1  UNL1        0.2574
     36 O         139.5315  146.4441  154.3903 O.3     1  UNL1       -0.4302
@<TRIPOS>BOND
     1    35    36    1
     2    36    31    1
     3    31    32    2
     4    31    33   am
     5    33    34    1
     6    33     1    1
     7     1     2   ar
     8     2     3    1
     9     2     4   ar
    10     4     5   ar
    11     5    13    1
    12    13    14   ar
    13    14    15   ar
    14    15    22    1
    15    22    23    1
    16    23    24   ar
    17    24    25   ar
    18    25    26   ar
    19    26    27   ar
    20    27    28    1
    21    27    29   ar
    22    29    30    1
    23    15    16   ar
    24    16    17   ar
    25    17    18   ar
    26    18    19   ar
    27    19    20   ar
    28    20    21   ar
    29     5     6   ar
    30     6     7   ar
    31     7     8    1
    32     7     1   ar
    33    21    13   ar
    34    29    23   ar
    35    21    16   ar
    36     3     9    1
    37     3    10    1
    38     8    11    1
    39     8    12    1
@<TRIPOS>MOLECULE
*****
 36 39 0 0 0
SMALL
GASTEIGER

@<TRIPOS>ATOM
      1 C         141.2359  143.0348  159.6487 C.ar    1  UNL1        0.1194
      2 C         140.9697  141.5659  159.7953 C.ar    1  UNL1        0.1452
      3 N         140.7295  140.7221  158.5786 N.pl3   1  UNL1       -0.3415
      4 N         140.9438  140.9408  161.1586 N.ar    1  UNL1       -0.1940
      5 C         141.1840  141.7844  162.3753 C.ar    1  UNL1        0.2554
      6 N         141.4502  143.2534  162.2287 N.ar    1  UNL1       -0.1940
      7 C         141.4761  143.8785  160.8654 C.ar    1  UNL1        0.1452
      8 N         141.7423  145.3474  160.7189 N.pl3   1  UNL1       -0.3415
      9 H         140.7465  141.1324  157.6839 H       1  UNL1        0.1438
     10 H         140.5548  139.7581  158.6748 H       1  UNL1        0.1438
     11 H         141.9000  145.9011  161.5175 H       1  UNL1        0.1438
     12 H         141.7594  145.7577  159.8242 H       1  UNL1        0.1438
     13 N         141.1581  141.1593  163.7386 N.ar    1  UNL1       -0.1967
     14 N         140.0409  141.2615  164.7343 N.ar    1  UNL1       -0.1666
     15 C         140.4372  140.4876  165.9566 C.ar    1  UNL1        0.0849
     16 C         141.7993  139.9070  165.7163 C.ar    1  UNL1        0.0334
     17 C         142.6914  139.0540  166.5686 C.ar    1  UNL1        0.0027
     18 C         144.0290  138.6161  166.0501 C.ar    1  UNL1        0.0001
     19 C         144.4746  139.0313  164.6792 C.ar    1  UNL1        0.0015
     20 C         143.5825  139.8843  163.8269 C.ar    1  UNL1        0.0193
     21 C         142.2448  140.3222  164.3455 C.ar    1  UNL1        0.0870
     22 C         139.6156  140.3230  167.2008 C.3     1  UNL1        0.0762
     23 C         140.0910  140.9105  168.4966 C.ar    1  UNL1        0.0136
     24 C         140.3459  140.0188  169.6755 C.ar    1  UNL1       -0.0015
     25 C         140.8212  140.6061  170.9713 C.ar    1  UNL1        0.0021
     26 C         141.0417  142.0853  171.0881 C.ar    1  UNL1        0.0319
     27 C         140.7869  142.9769  169.9091 C.ar    1  UNL1        0.1671
     28 F         141.0074  144.4560  170.0259 F       1  UNL1       -0.2018
     29 C         140.3115  142.3896  168.6134 C.ar    1  UNL1        0.1637
     30 F         140.0567  143.2813  167.4344 F       1  UNL1       -0.2021
     31 C         142.5584  143.7826  157.5413 C.2     1  UNL1        0.4090
     32 O         143.8290  143.2802  158.1603 O.2     1  UNL1       -0.2258
     33 N         141.2618  143.6599  158.2854 N.am    1  UNL1       -0.2181
     34 C         139.9913  144.1623  157.6664 C.3     1  UNL1        0.1237
     35 C         142.5377  143.5413  154.9544 C.3     1  UNL1        0.2574
     36 O         142.5844  144.4077  156.1779 O.3     1  UNL1       -0.4302
@<TRIPOS>BOND
     1    35    36    1
     2    36    31    1
     3    31    32    2
     4    31    33   am
     5    33    34    1
     6    33     1    1
     7     1     2   ar
     8     2     3    1
     9     2     4   ar
    10     4     5   ar
    11     5    13    1
    12    13    14   ar
    13    14    15   ar
    14    15    22    1
    15    22    23    1
    16    23    24   ar
    17    24    25   ar
    18    25    26   ar
    19    26    27   ar
    20    27    28    1
    21    27    29   ar
    22    29    30    1
    23    15    16   ar
    24    16    17   ar
    25    17    18   ar
    26    18    19   ar
    27    19    20   ar
    28    20    21   ar
    29     5     6   ar
    30     6     7   ar
    31     7     8    1
    32     7     1   ar
    33    21    13   ar
    34    29    23   ar
    35    21    16   ar
    36     3     9    1
    37     3    10    1
    38     8    11    1
    39     8    12    1
@<TRIPOS>MOLECULE
*****
 36 39 0 0 0
SMALL
GASTEIGER

@<TRIPOS>ATOM
      1 C         139.2814  139.4669  157.0075 C.ar    1  UNL1        0.1194
      2 C         140.3534  138.9961  157.9451 C.ar    1  UNL1        0.1452
      3 N         141.5982  138.3594  157.4020 N.pl3   1  UNL1       -0.3415
      4 N         140.1806  139.1621  159.4259 N.ar    1  UNL1       -0.1940
      5 C         138.9359  139.7988  159.9690 C.ar    1  UNL1        0.2554
      6 N         137.8638  140.2696  159.0313 N.ar    1  UNL1       -0.1940
      7 C         138.0366  140.1036  157.5506 C.ar    1  UNL1        0.1452
      8 N         136.9646  140.5744  156.6130 N.pl3   1  UNL1       -0.3415
      9 H         141.7117  138.2505  156.4302 H       1  UNL1        0.1438
     10 H         142.3018  138.0504  158.0174 H       1  UNL1        0.1438
     11 H         136.1476  140.9923  156.9695 H       1  UNL1        0.1438
     12 H         137.0779  140.4655  155.6412 H       1  UNL1        0.1438
     13 N         138.7630  139.9648  161.4498 N.ar    1  UNL1       -0.1967
     14 N         138.8846  138.8802  162.4787 N.ar    1  UNL1       -0.1666
     15 C         138.6350  139.4897  163.8263 C.ar    1  UNL1        0.0849
     16 C         138.3592  140.9510  163.6303 C.ar    1  UNL1        0.0334
     17 C         138.0462  142.0522  164.5995 C.ar    1  UNL1        0.0027
     18 C         137.8123  143.4470  164.0999 C.ar    1  UNL1        0.0001
     19 C         137.8914  143.7407  162.6311 C.ar    1  UNL1        0.0015
     20 C         138.2044  142.6395  161.6619 C.ar    1  UNL1        0.0193
     21 C         138.4383  141.2447  162.1615 C.ar    1  UNL1        0.0870
     22 C         138.6573  138.7651  165.1395 C.3     1  UNL1        0.0762
     23 C         139.4536  139.3146  166.2859 C.ar    1  UNL1        0.0136
     24 C         140.8824  139.7218  166.0797 C.ar    1  UNL1       -0.0015
     25 C         141.6787  140.2713  167.2259 C.ar    1  UNL1        0.0021
     26 C         141.0461  140.4135  168.5786 C.ar    1  UNL1        0.0319
     27 C         139.6172  140.0062  168.7848 C.ar    1  UNL1        0.1671
     28 F         138.9846  140.1484  170.1374 F       1  UNL1       -0.2018
     29 C         138.8210  139.4568  167.6386 C.ar    1  UNL1        0.1637
     30 F         137.3921  139.0495  167.8448 F       1  UNL1       -0.2021
     31 C         138.9435  138.0658  154.8459 C.2     1  UNL1        0.4090
     32 O         138.2599  136.9967  155.6458 O.2     1  UNL1       -0.2258
     33 N         139.4542  139.3009  155.5267 N.am    1  UNL1       -0.2181
     34 C         140.1378  140.3700  154.7269 C.3     1  UNL1        0.1237
     35 C         138.1436  137.0655  152.5854 C.3     1  UNL1        0.2574
     36 O         139.1162  137.8997  153.3652 O.3     1  UNL1       -0.4302
@<TRIPOS>BOND
     1    35    36    1
     2    36    31    1
     3    31    32    2
     4    31    33   am
     5    33    34    1
     6    33     1    1
     7     1     2   ar
     8     2     3    1
     9     2     4   ar
    10     4     5   ar
    11     5    13    1
    12    13    14   ar
    13    14    15   ar
    14    15    22    1
    15    22    23    1
    16    23    24   ar
    17    24    25   ar
    18    25    26   ar
    19    26    27   ar
    20    27    28    1
    21    27    29   ar
    22    29    30    1
    23    15    16   ar
    24    16    17   ar
    25    17    18   ar
    26    18    19   ar
    27    19    20   ar
    28    20    21   ar
    29     5     6   ar
    30     6     7   ar
    31     7     8    1
    32     7     1   ar
    33    21    13   ar
    34    29    23   ar
    35    21    16   ar
    36     3     9    1
    37     3    10    1
    38     8    11    1
    39     8    12    1
@<TRIPOS>MOLECULE
*****
 36 39 0 0 0
SMALL
GASTEIGER

@<TRIPOS>ATOM
      1 C         141.7358  136.6601  155.8352 C.ar    1  UNL1        0.1194
      2 C         143.1732  137.0131  156.0783 C.ar    1  UNL1        0.1452
      3 N         144.2458  136.4350  155.2035 N.pl3   1  UNL1       -0.3415
      4 N         143.5381  137.9442  157.1963 N.ar    1  UNL1       -0.1940
      5 C         142.4656  138.5224  158.0711 C.ar    1  UNL1        0.2554
      6 N         141.0281  138.1694  157.8280 N.ar    1  UNL1       -0.1940
      7 C         140.6632  137.2383  156.7100 C.ar    1  UNL1        0.1452
      8 N         139.2258  136.8853  156.4670 N.pl3   1  UNL1       -0.3415
      9 H         144.0063  135.8238  154.4697 H       1  UNL1        0.1438
     10 H         145.1892  136.6666  155.3630 H       1  UNL1        0.1438
     11 H         138.5218  137.2648  157.0412 H       1  UNL1        0.1438
     12 H         138.9862  136.2742  155.7332 H       1  UNL1        0.1438
     13 N         142.8305  139.4535  159.1891 N.ar    1  UNL1       -0.1967
     14 N         143.3740  140.8433  159.0372 N.ar    1  UNL1       -0.1666
     15 C         143.5954  141.4070  160.4095 C.ar    1  UNL1        0.0849
     16 C         143.1887  140.3656  161.4096 C.ar    1  UNL1        0.0334
     17 C         143.1877  140.3608  162.9095 C.ar    1  UNL1        0.0027
     18 C         142.7141  139.1485  163.6552 C.ar    1  UNL1        0.0001
     19 C         142.2414  137.9412  162.9010 C.ar    1  UNL1        0.0015
     20 C         142.2423  137.9461  161.4010 C.ar    1  UNL1        0.0193
     21 C         142.7160  139.1583  160.6553 C.ar    1  UNL1        0.0870
     22 C         144.1296  142.7724  160.7262 C.3     1  UNL1        0.0762
     23 C         143.4158  143.6465  161.7145 C.ar    1  UNL1        0.0136
     24 C         144.1294  144.1271  162.9432 C.ar    1  UNL1       -0.0015
     25 C         143.4157  145.0011  163.9314 C.ar    1  UNL1        0.0021
     26 C         141.9883  145.3944  163.6910 C.ar    1  UNL1        0.0319
     27 C         141.2746  144.9138  162.4623 C.ar    1  UNL1        0.1671
     28 F         139.8472  145.3071  162.2218 F       1  UNL1       -0.2018
     29 C         141.9884  144.0398  161.4740 C.ar    1  UNL1        0.1637
     30 F         141.2747  143.5591  160.2453 F       1  UNL1       -0.2021
     31 C         141.4477  134.2451  154.9219 C.2     1  UNL1        0.4090
     32 O         141.8894  133.6922  156.2445 O.2     1  UNL1       -0.2258
     33 N         141.3709  135.7290  154.7172 N.am    1  UNL1       -0.2181
     34 C         140.9292  136.2818  153.3946 C.3     1  UNL1        0.1237
     35 C         140.9191  131.8472  154.0726 C.3     1  UNL1        0.2574
     36 O         141.0828  133.3138  153.8040 O.3     1  UNL1       -0.4302
@<TRIPOS>BOND
     1    35    36    1
     2    36    31    1
     3    31    32    2
     4    31    33   am
     5    33    34    1
     6    33     1    1
     7     1     2   ar
     8     2     3    1
     9     2     4   ar
    10     4     5   ar
    11     5    13    1
    12    13    14   ar
    13    14    15   ar
    14    15    22    1
    15    22    23    1
    16    23    24   ar
    17    24    25   ar
    18    25    26   ar
    19    26    27   ar
    20    27    28    1
    21    27    29   ar
    22    29    30    1
    23    15    16   ar
    24    16    17   ar
    25    17    18   ar
    26    18    19   ar
    27    19    20   ar
    28    20    21   ar
    29     5     6   ar
    30     6     7   ar
    31     7     8    1
    32     7     1   ar
    33    21    13   ar
    34    29    23   ar
    35    21    16   ar
    36     3     9    1
    37     3    10    1
    38     8    11    1
    39     8    12    1
