@<TRIPOS>MOLECULE
*****
 34 38 0 0 0
SMALL
GASTEIGER

@<TRIPOS>ATOM
      1 N         139.7786  138.3346  161.7748 N.3     1  UNL1       -0.2704
      2 C         139.0362  139.1715  162.7740 C.3     1  UNL1        0.0722
      3 C         139.6287  139.4236  164.1288 C.3     1  UNL1        0.0195
      4 C         140.9635  138.8388  164.4843 C.3     1  UNL1        0.0300
      5 C         141.7058  138.0019  163.4851 C.3     1  UNL1        0.0195
      6 C         141.1134  137.7498  162.1303 C.3     1  UNL1        0.0722
      7 C         142.2819  138.3229  164.9800 C.3     1  UNL1        0.0874
      8 C         142.4748  138.8164  166.3834 C.2     1  UNL1        0.2305
      9 O         143.6589  138.5379  167.2610 O.2     1  UNL1       -0.2745
     10 N         141.2755  139.6372  166.7550 N.am    1  UNL1       -0.2425
     11 C         140.3415  139.6511  165.5814 C.3     1  UNL1        0.1001
     12 C         141.0499  140.3236  168.0694 C.ar    1  UNL1        0.1574
     13 C         139.8102  140.0352  168.8632 C.ar    1  UNL1        0.0414
     14 C         139.5846  140.7216  170.1777 C.ar    1  UNL1        0.0651
     15 C         140.5987  141.6965  170.6985 C.ar    1  UNL1        0.2766
     16 O         140.3731  142.3830  172.0130 O.2     1  UNL1       -0.2655
     17 N         141.8384  141.9851  169.9047 N.ar    1  UNL1       -0.2134
     18 C         142.8525  142.9600  170.4255 C.3     1  UNL1        0.1571
     19 N         142.0639  141.2986  168.5902 N.ar    1  UNL1       -0.1513
     20 C         139.1862  138.0824  160.4199 C.3     1  UNL1        0.1063
     21 C         139.3677  139.0891  159.3228 C.3     1  UNL1        0.1483
     22 O         139.3296  138.6506  157.8889 O.3     1  UNL1       -0.3786
     23 H         139.4626  139.4192  157.3121 H       1  UNL1        0.2108
     24 C         142.1550  140.1894  159.4651 C.3     1  UNL1        0.0306
     25 C         140.9810  141.0843  159.7308 C.ar    1  UNL1       -0.0238
     26 C         139.5873  140.5342  159.6597 C.ar    1  UNL1        0.0015
     27 C         138.4133  141.4292  159.9254 C.ar    1  UNL1       -0.0020
     28 C         138.6328  142.8742  160.2623 C.ar    1  UNL1        0.0060
     29 C         140.0265  143.4243  160.3334 C.ar    1  UNL1        0.0748
     30 C         141.2005  142.5294  160.0677 C.ar    1  UNL1        0.0233
     31 C         142.4492  143.3484  160.2096 C.3     1  UNL1        0.2352
     32 O         142.0468  144.7496  160.5630 O.3     1  UNL1       -0.4404
     33 C         140.5495  144.7965  160.6395 C.2     1  UNL1        0.3413
     34 O         139.7207  146.0036  160.9650 O.2     1  UNL1       -0.2449
@<TRIPOS>BOND
     1    24    25    1
     2    25    26   ar
     3    26    21    1
     4    21    22    1
     5    21    20    1
     6    20     1    1
     7     1     2    1
     8     2     3    1
     9     3     4    1
    10     4     5    1
    11     5     6    1
    12     4     7    1
    13     7     8    1
    14     8     9    2
    15     8    10   am
    16    10    12    1
    17    12    13   ar
    18    13    14   ar
    19    14    15   ar
    20    15    16    2
    21    15    17   ar
    22    17    18    1
    23    17    19   ar
    24    10    11    1
    25    26    27   ar
    26    27    28   ar
    27    28    29   ar
    28    29    30   ar
    29    30    31    1
    30    31    32    1
    31    32    33    1
    32    33    34    2
    33    30    25   ar
    34     6     1    1
    35    19    12   ar
    36    33    29    1
    37    11     4    1
    38    22    23    1
@<TRIPOS>MOLECULE
*****
 34 38 0 0 0
SMALL
GASTEIGER

@<TRIPOS>ATOM
      1 N         138.6864  139.2120  164.8246 N.3     1  UNL1       -0.2704
      2 C         138.0272  140.3632  164.1243 C.3     1  UNL1        0.0722
      3 C         138.0304  140.4306  162.6258 C.3     1  UNL1        0.0195
      4 C         138.6926  139.3469  161.8277 C.3     1  UNL1        0.0300
      5 C         139.3518  138.1958  162.5280 C.3     1  UNL1        0.0195
      6 C         139.3486  138.1284  164.0264 C.3     1  UNL1        0.0722
      7 C         139.3117  138.3427  160.9012 C.3     1  UNL1        0.0874
      8 C         139.0789  138.8055  159.4934 C.2     1  UNL1        0.2305
      9 O         139.5299  138.1017  158.2479 O.2     1  UNL1       -0.2745
     10 N         138.3160  140.0958  159.5499 N.am    1  UNL1       -0.2425
     11 C         138.0773  140.4304  160.9925 C.3     1  UNL1        0.1001
     12 C         137.8701  140.9088  158.3709 C.ar    1  UNL1        0.1574
     13 C         138.5712  142.1919  158.0364 C.ar    1  UNL1        0.0414
     14 C         138.1253  143.0049  156.8573 C.ar    1  UNL1        0.0651
     15 C         136.9783  142.5347  156.0127 C.ar    1  UNL1        0.2766
     16 O         136.5324  143.3477  154.8336 O.2     1  UNL1       -0.2655
     17 N         136.2772  141.2514  156.3472 N.ar    1  UNL1       -0.2134
     18 C         135.1302  140.7812  155.5026 C.3     1  UNL1        0.1571
     19 N         136.7232  140.4386  157.5263 N.ar    1  UNL1       -0.1513
     20 C         138.6832  139.1446  166.3231 C.3     1  UNL1        0.1063
     21 C         139.7610  139.8328  167.1071 C.3     1  UNL1        0.1483
     22 O         139.5806  140.0766  168.5761 O.3     1  UNL1       -0.3786
     23 H         140.3640  140.5278  168.9276 H       1  UNL1        0.2108
     24 C         140.0516  142.6784  166.2026 C.3     1  UNL1        0.0306
     25 C         141.1646  141.7001  165.9698 C.ar    1  UNL1       -0.0238
     26 C         141.0193  140.2773  166.4220 C.ar    1  UNL1        0.0015
     27 C         142.1323  139.2990  166.1893 C.ar    1  UNL1       -0.0020
     28 C         143.3905  139.7435  165.5043 C.ar    1  UNL1        0.0060
     29 C         143.5358  141.1663  165.0520 C.ar    1  UNL1        0.0748
     30 C         142.4228  142.1446  165.2848 C.ar    1  UNL1        0.0233
     31 C         142.8495  143.4722  164.7323 C.3     1  UNL1        0.2352
     32 O         144.2262  143.3145  164.1580 O.3     1  UNL1       -0.4404
     33 C         144.6503  141.8893  164.3556 C.2     1  UNL1        0.3413
     34 O         145.9592  141.2920  163.9314 O.2     1  UNL1       -0.2449
@<TRIPOS>BOND
     1    24    25    1
     2    25    26   ar
     3    26    21    1
     4    21    22    1
     5    21    20    1
     6    20     1    1
     7     1     2    1
     8     2     3    1
     9     3     4    1
    10     4     5    1
    11     5     6    1
    12     4     7    1
    13     7     8    1
    14     8     9    2
    15     8    10   am
    16    10    12    1
    17    12    13   ar
    18    13    14   ar
    19    14    15   ar
    20    15    16    2
    21    15    17   ar
    22    17    18    1
    23    17    19   ar
    24    10    11    1
    25    26    27   ar
    26    27    28   ar
    27    28    29   ar
    28    29    30   ar
    29    30    31    1
    30    31    32    1
    31    32    33    1
    32    33    34    2
    33    30    25   ar
    34     6     1    1
    35    19    12   ar
    36    33    29    1
    37    11     4    1
    38    22    23    1
@<TRIPOS>MOLECULE
*****
 34 38 0 0 0
SMALL
GASTEIGER

@<TRIPOS>ATOM
      1 N         142.0782  137.9615  161.8888 N.3     1  UNL1       -0.2704
      2 C         142.7645  138.7190  162.9865 C.3     1  UNL1        0.0722
      3 C         142.0142  139.0730  164.2361 C.3     1  UNL1        0.0195
      4 C         140.5775  138.6694  164.3880 C.3     1  UNL1        0.0300
      5 C         139.8911  137.9119  163.2903 C.3     1  UNL1        0.0195
      6 C         140.6415  137.5579  162.0407 C.3     1  UNL1        0.0722
      7 C         139.1448  138.3352  164.6808 C.3     1  UNL1        0.0874
      8 C         138.8099  138.8790  166.0381 C.2     1  UNL1        0.2305
      9 O         137.4824  138.7713  166.7281 O.2     1  UNL1       -0.2745
     10 N         140.0356  139.5494  166.5842 N.am    1  UNL1       -0.2425
     11 C         141.1280  139.4199  165.5644 C.3     1  UNL1        0.1001
     12 C         140.1491  140.2297  167.9161 C.ar    1  UNL1        0.1574
     13 C         139.0791  140.0381  168.9497 C.ar    1  UNL1        0.0414
     14 C         139.1925  140.7185  170.2817 C.ar    1  UNL1        0.0651
     15 C         140.3759  141.5906  170.5801 C.ar    1  UNL1        0.2766
     16 O         140.4893  142.2710  171.9121 O.2     1  UNL1       -0.2655
     17 N         141.4460  141.7823  169.5464 N.ar    1  UNL1       -0.2134
     18 C         142.6294  142.6543  169.8448 C.3     1  UNL1        0.1571
     19 N         141.3325  141.1018  168.2145 N.ar    1  UNL1       -0.1513
     20 C         142.8286  137.6075  160.6391 C.3     1  UNL1        0.1063
     21 C         142.7243  138.4856  159.4275 C.3     1  UNL1        0.1483
     22 O         143.3685  138.0661  158.1395 O.3     1  UNL1       -0.3786
     23 H         143.2073  138.7416  157.4623 H       1  UNL1        0.2108
     24 C         139.8463  138.6090  158.5897 C.3     1  UNL1        0.0306
     25 C         140.5369  139.8450  159.0850 C.ar    1  UNL1       -0.0238
     26 C         141.9759  139.7834  159.5039 C.ar    1  UNL1        0.0015
     27 C         142.6665  141.0194  159.9992 C.ar    1  UNL1       -0.0020
     28 C         141.9181  142.3171  160.0757 C.ar    1  UNL1        0.0060
     29 C         140.4791  142.3787  159.6568 C.ar    1  UNL1        0.0748
     30 C         139.7885  141.1427  159.1614 C.ar    1  UNL1        0.0233
     31 C         138.3740  141.5072  158.8203 C.3     1  UNL1        0.2352
     32 O         138.1904  142.9685  159.1048 O.3     1  UNL1       -0.4404
     33 C         139.4914  143.5071  159.6218 C.2     1  UNL1        0.3413
     34 O         139.7579  144.9251  160.0318 O.2     1  UNL1       -0.2449
@<TRIPOS>BOND
     1    24    25    1
     2    25    26   ar
     3    26    21    1
     4    21    22    1
     5    21    20    1
     6    20     1    1
     7     1     2    1
     8     2     3    1
     9     3     4    1
    10     4     5    1
    11     5     6    1
    12     4     7    1
    13     7     8    1
    14     8     9    2
    15     8    10   am
    16    10    12    1
    17    12    13   ar
    18    13    14   ar
    19    14    15   ar
    20    15    16    2
    21    15    17   ar
    22    17    18    1
    23    17    19   ar
    24    10    11    1
    25    26    27   ar
    26    27    28   ar
    27    28    29   ar
    28    29    30   ar
    29    30    31    1
    30    31    32    1
    31    32    33    1
    32    33    34    2
    33    30    25   ar
    34     6     1    1
    35    19    12   ar
    36    33    29    1
    37    11     4    1
    38    22    23    1
@<TRIPOS>MOLECULE
*****
 34 38 0 0 0
SMALL
GASTEIGER

@<TRIPOS>ATOM
      1 N         139.7737  138.3474  161.7906 N.3     1  UNL1       -0.2704
      2 C         139.0354  139.1850  162.7921 C.3     1  UNL1        0.0722
      3 C         139.6284  139.4296  164.1480 C.3     1  UNL1        0.0195
      4 C         140.9598  138.8365  164.5024 C.3     1  UNL1        0.0300
      5 C         141.6982  137.9988  163.5009 C.3     1  UNL1        0.0195
      6 C         141.1052  137.7543  162.1450 C.3     1  UNL1        0.0722
      7 C         142.2751  138.3119  164.9971 C.3     1  UNL1        0.0874
      8 C         142.4699  138.7998  166.4022 C.2     1  UNL1        0.2305
      9 O         143.6520  138.5121  167.2795 O.2     1  UNL1       -0.2745
     10 N         141.2748  139.6259  166.7758 N.am    1  UNL1       -0.2425
     11 C         140.3416  139.6486  165.6017 C.3     1  UNL1        0.1001
     12 C         141.0522  140.3093  168.0923 C.ar    1  UNL1        0.1574
     13 C         139.8121  140.0225  168.8859 C.ar    1  UNL1        0.0414
     14 C         139.5894  140.7059  170.2025 C.ar    1  UNL1        0.0651
     15 C         140.6069  141.6761  170.7255 C.ar    1  UNL1        0.2766
     16 O         140.3842  142.3595  172.0421 O.2     1  UNL1       -0.2655
     17 N         141.8471  141.9629  169.9318 N.ar    1  UNL1       -0.2134
     18 C         142.8645  142.9331  170.4548 C.3     1  UNL1        0.1571
     19 N         142.0696  141.2795  168.6153 N.ar    1  UNL1       -0.1513
     20 C         139.1807  138.1028  160.4346 C.3     1  UNL1        0.1063
     21 C         139.3043  139.1449  159.3629 C.3     1  UNL1        0.1483
     22 O         138.0805  139.8501  158.8578 O.3     1  UNL1       -0.3786
     23 H         138.3345  140.4876  158.1723 H       1  UNL1        0.2108
     24 C         140.8072  141.5317  160.3849 C.3     1  UNL1        0.0306
     25 C         141.4031  140.6753  159.3072 C.ar    1  UNL1       -0.0238
     26 C         140.6517  139.4819  158.7962 C.ar    1  UNL1        0.0015
     27 C         141.2476  138.6255  157.7185 C.ar    1  UNL1       -0.0020
     28 C         142.5949  138.9624  157.1518 C.ar    1  UNL1        0.0060
     29 C         143.3463  140.1558  157.6628 C.ar    1  UNL1        0.0748
     30 C         142.7504  141.0122  158.7405 C.ar    1  UNL1        0.0233
     31 C         143.7187  142.1172  159.0429 C.3     1  UNL1        0.2352
     32 O         144.9131  141.9437  158.1521 O.3     1  UNL1       -0.4404
     33 C         144.6829  140.7315  157.2992 C.2     1  UNL1        0.3413
     34 O         145.6240  140.1899  156.2643 O.2     1  UNL1       -0.2449
@<TRIPOS>BOND
     1    24    25    1
     2    25    26   ar
     3    26    21    1
     4    21    22    1
     5    21    20    1
     6    20     1    1
     7     1     2    1
     8     2     3    1
     9     3     4    1
    10     4     5    1
    11     5     6    1
    12     4     7    1
    13     7     8    1
    14     8     9    2
    15     8    10   am
    16    10    12    1
    17    12    13   ar
    18    13    14   ar
    19    14    15   ar
    20    15    16    2
    21    15    17   ar
    22    17    18    1
    23    17    19   ar
    24    10    11    1
    25    26    27   ar
    26    27    28   ar
    27    28    29   ar
    28    29    30   ar
    29    30    31    1
    30    31    32    1
    31    32    33    1
    32    33    34    2
    33    30    25   ar
    34     6     1    1
    35    19    12   ar
    36    33    29    1
    37    11     4    1
    38    22    23    1
@<TRIPOS>MOLECULE
*****
 34 38 0 0 0
SMALL
GASTEIGER

@<TRIPOS>ATOM
      1 N         142.8660  139.2051  164.4916 N.3     1  UNL1       -0.2704
      2 C         142.1634  138.0986  163.7622 C.3     1  UNL1        0.0722
      3 C         142.2877  137.9856  162.2716 C.3     1  UNL1        0.0195
      4 C         143.1146  138.9792  161.5105 C.3     1  UNL1        0.0300
      5 C         143.8171  140.0856  162.2400 C.3     1  UNL1        0.0195
      6 C         143.6928  140.1986  163.7305 C.3     1  UNL1        0.0722
      7 C         143.9020  139.8937  160.6196 C.3     1  UNL1        0.0874
      8 C         143.7473  139.4115  159.2076 C.2     1  UNL1        0.2305
      9 O         144.3669  140.0328  157.9910 O.2     1  UNL1       -0.2745
     10 N         142.8643  138.1991  159.2259 N.am    1  UNL1       -0.2425
     11 C         142.4733  137.9318  160.6491 C.3     1  UNL1        0.1001
     12 C         142.4459  137.3951  158.0308 C.ar    1  UNL1        0.1574
     13 C         141.2029  137.7639  157.2765 C.ar    1  UNL1        0.0414
     14 C         140.7845  136.9599  156.0813 C.ar    1  UNL1        0.0651
     15 C         141.6090  135.7869  155.6404 C.ar    1  UNL1        0.2766
     16 O         141.1905  134.9828  154.4453 O.2     1  UNL1       -0.2655
     17 N         142.8520  135.4180  156.3947 N.ar    1  UNL1       -0.2134
     18 C         143.6765  134.2450  155.9539 C.3     1  UNL1        0.1571
     19 N         143.2704  136.2221  157.5899 N.ar    1  UNL1       -0.1513
     20 C         142.7417  139.3180  165.9822 C.3     1  UNL1        0.1063
     21 C         141.5902  140.0674  166.5842 C.3     1  UNL1        0.1483
     22 O         141.2778  139.9164  168.0435 O.3     1  UNL1       -0.3786
     23 H         140.5097  140.4646  168.2681 H       1  UNL1        0.2108
     24 C         139.1249  138.9982  165.2501 C.3     1  UNL1        0.0306
     25 C         139.5183  140.4332  165.0598 C.ar    1  UNL1       -0.0238
     26 C         140.7509  140.9677  165.7268 C.ar    1  UNL1        0.0015
     27 C         141.1443  142.4027  165.5364 C.ar    1  UNL1       -0.0020
     28 C         140.3051  143.3030  164.6791 C.ar    1  UNL1        0.0060
     29 C         139.0725  142.7684  164.0121 C.ar    1  UNL1        0.0748
     30 C         138.6791  141.3335  164.2024 C.ar    1  UNL1        0.0233
     31 C         137.4199  141.0910  163.4242 C.3     1  UNL1        0.2352
     32 O         137.0351  142.3759  162.7529 O.3     1  UNL1       -0.4404
     33 C         138.0564  143.4127  163.1162 C.2     1  UNL1        0.3413
     34 O         138.0610  144.8426  162.6632 O.2     1  UNL1       -0.2449
@<TRIPOS>BOND
     1    24    25    1
     2    25    26   ar
     3    26    21    1
     4    21    22    1
     5    21    20    1
     6    20     1    1
     7     1     2    1
     8     2     3    1
     9     3     4    1
    10     4     5    1
    11     5     6    1
    12     4     7    1
    13     7     8    1
    14     8     9    2
    15     8    10   am
    16    10    12    1
    17    12    13   ar
    18    13    14   ar
    19    14    15   ar
    20    15    16    2
    21    15    17   ar
    22    17    18    1
    23    17    19   ar
    24    10    11    1
    25    26    27   ar
    26    27    28   ar
    27    28    29   ar
    28    29    30   ar
    29    30    31    1
    30    31    32    1
    31    32    33    1
    32    33    34    2
    33    30    25   ar
    34     6     1    1
    35    19    12   ar
    36    33    29    1
    37    11     4    1
    38    22    23    1
@<TRIPOS>MOLECULE
*****
 34 38 0 0 0
SMALL
GASTEIGER

@<TRIPOS>ATOM
      1 N         143.5165  138.8020  161.9010 N.3     1  UNL1       -0.2704
      2 C         142.6777  138.4384  163.0902 C.3     1  UNL1        0.0722
      3 C         142.6661  139.3261  164.2993 C.3     1  UNL1        0.0195
      4 C         143.4934  140.5772  164.3192 C.3     1  UNL1        0.0300
      5 C         144.3322  140.9407  163.1300 C.3     1  UNL1        0.0195
      6 C         144.3437  140.0531  161.9209 C.3     1  UNL1        0.0722
      7 C         144.2648  141.8531  164.4838 C.3     1  UNL1        0.0874
      8 C         143.9565  142.4092  165.8424 C.2     1  UNL1        0.2305
      9 O         144.5125  143.6752  166.4238 O.2     1  UNL1       -0.2745
     10 N         142.9946  141.4770  166.5175 N.am    1  UNL1       -0.2425
     11 C         142.7084  140.3448  165.5762 C.3     1  UNL1        0.1001
     12 C         142.4199  141.6471  167.8925 C.ar    1  UNL1        0.1574
     13 C         143.1922  142.3907  168.9415 C.ar    1  UNL1        0.0414
     14 C         142.6175  142.5609  170.3165 C.ar    1  UNL1        0.0651
     15 C         141.2703  141.9874  170.6426 C.ar    1  UNL1        0.2766
     16 O         140.6956  142.1575  172.0176 O.2     1  UNL1       -0.2655
     17 N         140.4979  141.2437  169.5935 N.ar    1  UNL1       -0.2134
     18 C         139.1507  140.6702  169.9196 C.3     1  UNL1        0.1571
     19 N         141.0727  141.0736  168.2185 N.ar    1  UNL1       -0.1513
     20 C         143.5281  137.9143  160.6918 C.3     1  UNL1        0.1063
     21 C         142.7051  138.2731  159.4902 C.3     1  UNL1        0.1483
     22 O         142.6225  137.3279  158.3284 O.3     1  UNL1       -0.3786
     23 H         142.0544  137.7095  157.6409 H       1  UNL1        0.2108
     24 C         139.9142  138.4474  160.5768 C.3     1  UNL1        0.0306
     25 C         140.5694  139.6642  159.9936 C.ar    1  UNL1       -0.0238
     26 C         141.9648  139.5771  159.4503 C.ar    1  UNL1        0.0015
     27 C         142.6199  140.7939  158.8671 C.ar    1  UNL1       -0.0020
     28 C         141.8796  142.0979  158.8272 C.ar    1  UNL1        0.0060
     29 C         140.4842  142.1850  159.3705 C.ar    1  UNL1        0.0748
     30 C         139.8291  140.9682  159.9537 C.ar    1  UNL1        0.0233
     31 C         138.4539  141.3560  160.4103 C.3     1  UNL1        0.2352
     32 O         138.2591  142.8126  160.1094 O.3     1  UNL1       -0.4404
     33 C         139.5139  143.3249  159.4667 C.2     1  UNL1        0.3413
     34 O         139.7560  144.7304  159.0019 O.2     1  UNL1       -0.2449
@<TRIPOS>BOND
     1    24    25    1
     2    25    26   ar
     3    26    21    1
     4    21    22    1
     5    21    20    1
     6    20     1    1
     7     1     2    1
     8     2     3    1
     9     3     4    1
    10     4     5    1
    11     5     6    1
    12     4     7    1
    13     7     8    1
    14     8     9    2
    15     8    10   am
    16    10    12    1
    17    12    13   ar
    18    13    14   ar
    19    14    15   ar
    20    15    16    2
    21    15    17   ar
    22    17    18    1
    23    17    19   ar
    24    10    11    1
    25    26    27   ar
    26    27    28   ar
    27    28    29   ar
    28    29    30   ar
    29    30    31    1
    30    31    32    1
    31    32    33    1
    32    33    34    2
    33    30    25   ar
    34     6     1    1
    35    19    12   ar
    36    33    29    1
    37    11     4    1
    38    22    23    1
@<TRIPOS>MOLECULE
*****
 34 38 0 0 0
SMALL
GASTEIGER

@<TRIPOS>ATOM
      1 N         143.4662  140.2807  163.5452 N.3     1  UNL1       -0.2704
      2 C         142.9503  138.9338  163.1332 C.3     1  UNL1        0.0722
      3 C         142.8625  138.5772  161.6789 C.3     1  UNL1        0.0195
      4 C         143.2906  139.5673  160.6366 C.3     1  UNL1        0.0300
      5 C         143.8065  140.9142  161.0487 C.3     1  UNL1        0.0195
      6 C         143.8943  141.2708  162.5030 C.3     1  UNL1        0.0722
      7 C         143.6799  140.4493  159.4875 C.3     1  UNL1        0.0874
      8 C         143.4280  139.6931  158.2167 C.2     1  UNL1        0.2305
      9 O         143.6774  140.1976  156.8262 O.2     1  UNL1       -0.2745
     10 N         142.8830  138.3437  158.5805 N.am    1  UNL1       -0.2425
     11 C         142.7981  138.2660  160.0761 C.3     1  UNL1        0.1001
     12 C         142.4916  137.2621  157.6179 C.ar    1  UNL1        0.1574
     13 C         141.2952  137.4437  156.7316 C.ar    1  UNL1        0.0414
     14 C         140.9038  136.3621  155.7689 C.ar    1  UNL1        0.0651
     15 C         141.7089  135.0987  155.6924 C.ar    1  UNL1        0.2766
     16 O         141.3175  134.0171  154.7297 O.2     1  UNL1       -0.2655
     17 N         142.9054  134.9171  156.5787 N.ar    1  UNL1       -0.2134
     18 C         143.7105  133.6538  156.5023 C.3     1  UNL1        0.1571
     19 N         143.2967  135.9988  157.5414 N.ar    1  UNL1       -0.1513
     20 C         143.5540  140.6374  164.9996 C.3     1  UNL1        0.1063
     21 C         142.6196  141.6576  165.5793 C.3     1  UNL1        0.1483
     22 O         142.6012  143.0542  165.0324 O.3     1  UNL1       -0.3786
     23 H         141.9459  143.5819  165.5151 H       1  UNL1        0.2108
     24 C         143.3621  142.3346  168.4061 C.3     1  UNL1        0.0306
     25 C         142.0749  141.6198  168.1194 C.ar    1  UNL1       -0.0238
     26 C         141.7037  141.2813  166.7061 C.ar    1  UNL1        0.0015
     27 C         140.4165  140.5664  166.4194 C.ar    1  UNL1       -0.0020
     28 C         139.5005  140.1901  167.5460 C.ar    1  UNL1        0.0060
     29 C         139.8718  140.5286  168.9593 C.ar    1  UNL1        0.0748
     30 C         141.1589  141.2434  169.2460 C.ar    1  UNL1        0.0233
     31 C         141.2576  141.4435  170.7294 C.3     1  UNL1        0.2352
     32 O         140.0314  140.8524  171.3594 O.3     1  UNL1       -0.4404
     33 C         139.1749  140.2869  170.2655 C.2     1  UNL1        0.3413
     34 O         137.8535  139.6003  170.4459 O.2     1  UNL1       -0.2449
@<TRIPOS>BOND
     1    24    25    1
     2    25    26   ar
     3    26    21    1
     4    21    22    1
     5    21    20    1
     6    20     1    1
     7     1     2    1
     8     2     3    1
     9     3     4    1
    10     4     5    1
    11     5     6    1
    12     4     7    1
    13     7     8    1
    14     8     9    2
    15     8    10   am
    16    10    12    1
    17    12    13   ar
    18    13    14   ar
    19    14    15   ar
    20    15    16    2
    21    15    17   ar
    22    17    18    1
    23    17    19   ar
    24    10    11    1
    25    26    27   ar
    26    27    28   ar
    27    28    29   ar
    28    29    30   ar
    29    30    31    1
    30    31    32    1
    31    32    33    1
    32    33    34    2
    33    30    25   ar
    34     6     1    1
    35    19    12   ar
    36    33    29    1
    37    11     4    1
    38    22    23    1
@<TRIPOS>MOLECULE
*****
 34 38 0 0 0
SMALL
GASTEIGER

@<TRIPOS>ATOM
      1 N         140.5543  138.6630  161.4922 N.3     1  UNL1       -0.2704
      2 C         141.4121  139.4869  162.4061 C.3     1  UNL1        0.0722
      3 C         141.0361  139.6424  163.8498 C.3     1  UNL1        0.0195
      4 C         139.8022  138.9740  164.3797 C.3     1  UNL1        0.0300
      5 C         138.9444  138.1500  163.4658 C.3     1  UNL1        0.0195
      6 C         139.3204  137.9946  162.0221 C.3     1  UNL1        0.0722
      7 C         138.6042  138.3683  165.0489 C.3     1  UNL1        0.0874
      8 C         138.6198  138.7824  166.4906 C.2     1  UNL1        0.2305
      9 O         137.6057  138.4018  167.5283 O.2     1  UNL1       -0.2745
     10 N         139.8275  139.6441  166.7123 N.am    1  UNL1       -0.2425
     11 C         140.5582  139.7625  165.4078 C.3     1  UNL1        0.1001
     12 C         140.2331  140.2763  168.0106 C.ar    1  UNL1        0.1574
     13 C         139.2624  140.3330  169.1528 C.ar    1  UNL1        0.0414
     14 C         139.6681  140.9653  170.4511 C.ar    1  UNL1        0.0651
     15 C         141.0444  141.5408  170.6073 C.ar    1  UNL1        0.2766
     16 O         141.4501  142.1731  171.9057 O.2     1  UNL1       -0.2655
     17 N         142.0152  141.4841  169.4651 N.ar    1  UNL1       -0.2134
     18 C         143.3915  142.0597  169.6213 C.3     1  UNL1        0.1571
     19 N         141.6094  140.8519  168.1668 N.ar    1  UNL1       -0.1513
     20 C         140.9303  138.5075  160.0484 C.3     1  UNL1        0.1063
     21 C         142.3398  138.1565  159.6741 C.3     1  UNL1        0.1483
     22 O         143.0934  137.1309  160.4680 O.3     1  UNL1       -0.3786
     23 H         143.9828  137.0238  160.0961 H       1  UNL1        0.2108
     24 C         143.8346  140.7270  160.0714 C.3     1  UNL1        0.0306
     25 C         143.7431  140.1162  158.7044 C.ar    1  UNL1       -0.0238
     26 C         142.9957  138.8310  158.5058 C.ar    1  UNL1        0.0015
     27 C         142.9041  138.2202  157.1388 C.ar    1  UNL1       -0.0020
     28 C         143.5599  138.8947  155.9705 C.ar    1  UNL1        0.0060
     29 C         144.3073  140.1799  156.1692 C.ar    1  UNL1        0.0748
     30 C         144.3989  140.7907  157.5362 C.ar    1  UNL1        0.0233
     31 C         145.1977  142.0555  157.4261 C.3     1  UNL1        0.2352
     32 O         145.5999  142.2265  155.9912 O.3     1  UNL1       -0.4404
     33 C         145.0496  141.0673  155.2144 C.2     1  UNL1        0.3413
     34 O         145.2128  140.8360  153.7413 O.2     1  UNL1       -0.2449
@<TRIPOS>BOND
     1    24    25    1
     2    25    26   ar
     3    26    21    1
     4    21    22    1
     5    21    20    1
     6    20     1    1
     7     1     2    1
     8     2     3    1
     9     3     4    1
    10     4     5    1
    11     5     6    1
    12     4     7    1
    13     7     8    1
    14     8     9    2
    15     8    10   am
    16    10    12    1
    17    12    13   ar
    18    13    14   ar
    19    14    15   ar
    20    15    16    2
    21    15    17   ar
    22    17    18    1
    23    17    19   ar
    24    10    11    1
    25    26    27   ar
    26    27    28   ar
    27    28    29   ar
    28    29    30   ar
    29    30    31    1
    30    31    32    1
    31    32    33    1
    32    33    34    2
    33    30    25   ar
    34     6     1    1
    35    19    12   ar
    36    33    29    1
    37    11     4    1
    38    22    23    1
@<TRIPOS>MOLECULE
*****
 34 38 0 0 0
SMALL
GASTEIGER

@<TRIPOS>ATOM
      1 N         143.6939  138.7381  161.9714 N.3     1  UNL1       -0.2704
      2 C         142.8722  138.3627  163.1688 C.3     1  UNL1        0.0722
      3 C         142.8231  139.2729  164.3600 C.3     1  UNL1        0.0195
      4 C         143.5958  140.5586  164.3538 C.3     1  UNL1        0.0300
      5 C         144.4175  140.9341  163.1564 C.3     1  UNL1        0.0195
      6 C         144.4665  140.0238  161.9652 C.3     1  UNL1        0.0722
      7 C         144.3116  141.8696  164.4917 C.3     1  UNL1        0.0874
      8 C         143.9805  142.4389  165.8395 C.2     1  UNL1        0.2305
      9 O         144.4819  143.7391  166.3947 O.2     1  UNL1       -0.2745
     10 N         143.0600  141.4798  166.5344 N.am    1  UNL1       -0.2425
     11 C         142.8222  140.3178  165.6162 C.3     1  UNL1        0.1001
     12 C         142.4793  141.6525  167.9065 C.ar    1  UNL1        0.1574
     13 C         143.2560  142.3800  168.9636 C.ar    1  UNL1        0.0414
     14 C         142.6753  142.5527  170.3358 C.ar    1  UNL1        0.0651
     15 C         141.3177  141.9979  170.6509 C.ar    1  UNL1        0.2766
     16 O         140.7370  142.1706  172.0231 O.2     1  UNL1       -0.2655
     17 N         140.5409  141.2704  169.5938 N.ar    1  UNL1       -0.2134
     18 C         139.1834  140.7156  169.9090 C.3     1  UNL1        0.1571
     19 N         141.1218  141.0977  168.2217 N.ar    1  UNL1       -0.1513
     20 C         143.7430  137.8279  160.7801 C.3     1  UNL1        0.1063
     21 C         142.8502  138.0850  159.6025 C.3     1  UNL1        0.1483
     22 O         142.9750  137.2415  158.3684 O.3     1  UNL1       -0.3786
     23 H         142.3295  137.5376  157.7077 H       1  UNL1        0.2108
     24 C         143.4627  140.7580  158.3859 C.3     1  UNL1        0.0306
     25 C         142.1389  140.5221  159.0506 C.ar    1  UNL1       -0.0238
     26 C         141.8326  139.1856  159.6589 C.ar    1  UNL1        0.0015
     27 C         140.5088  138.9498  160.3235 C.ar    1  UNL1       -0.0020
     28 C         139.4912  140.0503  160.3800 C.ar    1  UNL1        0.0060
     29 C         139.7975  141.3868  159.7717 C.ar    1  UNL1        0.0748
     30 C         141.1213  141.6227  159.1070 C.ar    1  UNL1        0.0233
     31 C         141.1398  143.0338  158.5986 C.3     1  UNL1        0.2352
     32 O         139.8274  143.6700  158.9491 O.3     1  UNL1       -0.4404
     33 C         138.9978  142.6521  159.6741 C.2     1  UNL1        0.3413
     34 O         137.6119  142.8626  160.2078 O.2     1  UNL1       -0.2449
@<TRIPOS>BOND
     1    24    25    1
     2    25    26   ar
     3    26    21    1
     4    21    22    1
     5    21    20    1
     6    20     1    1
     7     1     2    1
     8     2     3    1
     9     3     4    1
    10     4     5    1
    11     5     6    1
    12     4     7    1
    13     7     8    1
    14     8     9    2
    15     8    10   am
    16    10    12    1
    17    12    13   ar
    18    13    14   ar
    19    14    15   ar
    20    15    16    2
    21    15    17   ar
    22    17    18    1
    23    17    19   ar
    24    10    11    1
    25    26    27   ar
    26    27    28   ar
    27    28    29   ar
    28    29    30   ar
    29    30    31    1
    30    31    32    1
    31    32    33    1
    32    33    34    2
    33    30    25   ar
    34     6     1    1
    35    19    12   ar
    36    33    29    1
    37    11     4    1
    38    22    23    1
