@<TRIPOS>MOLECULE
*****
 30 34 0 0 0
SMALL
GASTEIGER

@<TRIPOS>ATOM
      1 N         142.8152  143.3690  161.8126 N.pl3   1  UNL1       -0.2781
      2 C         143.9693  143.6047  162.7413 C.3     1  UNL1        0.0954
      3 C         143.5334  143.2297  164.1267 C.3     1  UNL1        0.0430
      4 C         143.9773  143.1435  165.5569 C.3     1  UNL1        0.0955
      5 N         142.8282  142.6229  166.3684 N.am    1  UNL1       -0.2759
      6 C         142.8324  142.3804  167.8486 C.2     1  UNL1        0.2505
      7 O         144.0673  142.6640  168.6516 O.2     1  UNL1       -0.2699
      8 C         141.6740  142.3872  165.4396 C.3     1  UNL1        0.0955
      9 C         142.1099  142.7622  164.0542 C.3     1  UNL1        0.0430
     10 C         141.6660  142.8483  162.6240 C.3     1  UNL1        0.0954
     11 C         144.6091  142.2548  157.0649 C.3     1  UNL1        0.0522
     12 C         143.7078  143.0544  157.9585 C.ar    1  UNL1        0.0634
     13 C         142.8023  144.0964  157.3717 C.ar    1  UNL1        0.0296
     14 C         141.9011  144.8959  158.2653 C.ar    1  UNL1        0.0634
     15 C         140.9956  145.9379  157.6786 C.3     1  UNL1        0.0522
     16 N         141.9054  144.6534  159.7456 N.ar    1  UNL1       -0.2180
     17 C         142.8109  143.6114  160.3323 C.ar    1  UNL1        0.2195
     18 N         143.7122  142.8119  159.4388 N.ar    1  UNL1       -0.2180
     19 C         141.6018  141.8544  168.5260 C.ar    1  UNL1        0.0731
     20 C         140.7997  142.7489  169.4241 C.ar    1  UNL1        0.0084
     21 C         139.5690  142.2228  170.1015 C.ar    1  UNL1        0.0299
     22 C         139.1405  140.8025  169.8809 C.ar    1  UNL1        0.1417
     23 F         137.9099  140.2764  170.5582 F       1  UNL1       -0.2041
     24 C         139.9426  139.9079  168.9827 C.ar    1  UNL1        0.0507
     25 C         141.1732  140.4339  168.3054 C.ar    1  UNL1        0.1095
     26 N         141.9753  139.5395  167.4073 N.ar    1  UNL1       -0.1476
     27 N         143.2719  138.8717  167.7578 N.ar    1  UNL1       -0.1447
     28 C         143.7196  138.0753  166.5682 C.ar    1  UNL1        0.1446
     29 C         142.6998  138.2509  165.4824 C.ar    1  UNL1        0.1446
     30 N         141.6218  139.1558  166.0010 N.ar    1  UNL1       -0.1447
@<TRIPOS>BOND
     1    11    12    1
     2    12    13   ar
     3    13    14   ar
     4    14    15    1
     5    14    16   ar
     6    16    17   ar
     7    17     1    1
     8     1     2    1
     9     3     2    1
    10     3     4    1
    11     4     5    1
    12     5     6   am
    13     6     7    2
    14     6    19    1
    15    19    20   ar
    16    20    21   ar
    17    21    22   ar
    18    22    23    1
    19    22    24   ar
    20    24    25   ar
    21    25    26    1
    22    26    27   ar
    23    27    28   ar
    24    28    29   ar
    25    29    30   ar
    26     5     8    1
    27     9     8    1
    28     9    10    1
    29    17    18   ar
    30    18    12   ar
    31    10     1    1
    32     9     3    1
    33    25    19   ar
    34    30    26   ar
@<TRIPOS>MOLECULE
*****
 30 34 0 0 0
SMALL
GASTEIGER

@<TRIPOS>ATOM
      1 N         141.7487  138.3480  158.7562 N.pl3   1  UNL1       -0.2781
      2 C         140.4920  139.1466  158.5745 C.3     1  UNL1        0.0954
      3 C         139.9691  139.5037  159.9343 C.3     1  UNL1        0.0430
      4 C         138.8693  140.2180  160.6624 C.3     1  UNL1        0.0955
      5 N         139.1230  140.0815  162.1345 N.am    1  UNL1       -0.2759
      6 C         138.2699  140.6448  163.2321 C.2     1  UNL1        0.2505
      7 O         137.0348  141.4269  162.8958 O.2     1  UNL1       -0.2699
      8 C         140.3797  139.2829  162.3162 C.3     1  UNL1        0.0955
      9 C         140.9026  138.9258  160.9564 C.3     1  UNL1        0.0430
     10 C         142.0025  138.2115  160.2283 C.3     1  UNL1        0.0954
     11 C         143.6444  134.2516  156.1822 C.3     1  UNL1        0.0522
     12 C         143.5498  135.7366  156.3715 C.ar    1  UNL1        0.0634
     13 C         144.3083  136.6583  155.4632 C.ar    1  UNL1        0.0296
     14 C         144.2136  138.1433  155.6525 C.ar    1  UNL1        0.0634
     15 C         144.9720  139.0651  154.7442 C.3     1  UNL1        0.0522
     16 N         143.3604  138.7065  156.7502 N.ar    1  UNL1       -0.2180
     17 C         142.6019  137.7848  157.6585 C.ar    1  UNL1        0.2195
     18 N         142.6966  136.2998  157.4692 N.ar    1  UNL1       -0.2180
     19 C         138.6517  140.4259  164.6661 C.ar    1  UNL1        0.0731
     20 C         138.1160  139.2400  165.4122 C.ar    1  UNL1        0.0084
     21 C         138.4979  139.0212  166.8463 C.ar    1  UNL1        0.0299
     22 C         139.4153  139.9881  167.5341 C.ar    1  UNL1        0.1417
     23 F         139.7971  139.7693  168.9681 F       1  UNL1       -0.2041
     24 C         139.9510  141.1741  166.7880 C.ar    1  UNL1        0.0507
     25 C         139.5692  141.3929  165.3540 C.ar    1  UNL1        0.1095
     26 N         140.1048  142.5788  164.6079 N.ar    1  UNL1       -0.1476
     27 N         141.3428  142.6021  163.7611 N.ar    1  UNL1       -0.1447
     28 C         141.4996  143.9873  163.2074 C.ar    1  UNL1        0.1446
     29 C         140.3587  144.8201  163.7119 C.ar    1  UNL1        0.1446
     30 N         139.4967  143.9496  164.5774 N.ar    1  UNL1       -0.1447
@<TRIPOS>BOND
     1    11    12    1
     2    12    13   ar
     3    13    14   ar
     4    14    15    1
     5    14    16   ar
     6    16    17   ar
     7    17     1    1
     8     1     2    1
     9     3     2    1
    10     3     4    1
    11     4     5    1
    12     5     6   am
    13     6     7    2
    14     6    19    1
    15    19    20   ar
    16    20    21   ar
    17    21    22   ar
    18    22    23    1
    19    22    24   ar
    20    24    25   ar
    21    25    26    1
    22    26    27   ar
    23    27    28   ar
    24    28    29   ar
    25    29    30   ar
    26     5     8    1
    27     9     8    1
    28     9    10    1
    29    17    18   ar
    30    18    12   ar
    31    10     1    1
    32     9     3    1
    33    25    19   ar
    34    30    26   ar
@<TRIPOS>MOLECULE
*****
 30 34 0 0 0
SMALL
GASTEIGER

@<TRIPOS>ATOM
      1 N         139.4447  142.5940  161.4101 N.pl3   1  UNL1       -0.2781
      2 C         138.7268  141.4386  162.0420 C.3     1  UNL1        0.0954
      3 C         139.1333  141.3732  163.4844 C.3     1  UNL1        0.0430
      4 C         138.9409  140.6186  164.7664 C.3     1  UNL1        0.0955
      5 N         139.7911  141.2674  165.8183 N.am    1  UNL1       -0.2759
      6 C         139.9036  140.8363  167.2505 C.2     1  UNL1        0.2505
      7 O         139.1206  139.6551  167.7421 O.2     1  UNL1       -0.2699
      8 C         140.5090  142.4229  165.1862 C.3     1  UNL1        0.0955
      9 C         140.1025  142.4883  163.7439 C.3     1  UNL1        0.0430
     10 C         140.2950  143.2428  162.4618 C.3     1  UNL1        0.0954
     11 C         137.3018  142.0640  156.7062 C.3     1  UNL1        0.0522
     12 C         138.2607  142.7601  157.6258 C.ar    1  UNL1        0.0634
     13 C         139.1072  143.8874  157.1131 C.ar    1  UNL1        0.0296
     14 C         140.0661  144.5835  158.0328 C.ar    1  UNL1        0.0634
     15 C         140.9126  145.7108  157.5202 C.3     1  UNL1        0.0522
     16 N         140.1786  144.1524  159.4651 N.ar    1  UNL1       -0.2180
     17 C         139.3322  143.0251  159.9778 C.ar    1  UNL1        0.2195
     18 N         138.3732  142.3290  159.0581 N.ar    1  UNL1       -0.2180
     19 C         140.7992  141.5864  168.1914 C.ar    1  UNL1        0.0731
     20 C         140.2261  142.6390  169.0934 C.ar    1  UNL1        0.0084
     21 C         141.1218  143.3892  170.0343 C.ar    1  UNL1        0.0299
     22 C         142.5904  143.0868  170.0732 C.ar    1  UNL1        0.1417
     23 F         143.4860  143.8369  171.0140 F       1  UNL1       -0.2041
     24 C         143.1636  142.0341  169.1711 C.ar    1  UNL1        0.0507
     25 C         142.2680  141.2840  168.2303 C.ar    1  UNL1        0.1095
     26 N         142.8410  140.2314  167.3283 N.ar    1  UNL1       -0.1476
     27 N         143.1466  138.8136  167.7108 N.ar    1  UNL1       -0.1447
     28 C         143.7036  138.1178  166.5043 C.ar    1  UNL1        0.1446
     29 C         143.7423  139.1056  165.3762 C.ar    1  UNL1        0.1446
     30 N         143.2092  140.4118  165.8854 N.ar    1  UNL1       -0.1447
@<TRIPOS>BOND
     1    11    12    1
     2    12    13   ar
     3    13    14   ar
     4    14    15    1
     5    14    16   ar
     6    16    17   ar
     7    17     1    1
     8     1     2    1
     9     3     2    1
    10     3     4    1
    11     4     5    1
    12     5     6   am
    13     6     7    2
    14     6    19    1
    15    19    20   ar
    16    20    21   ar
    17    21    22   ar
    18    22    23    1
    19    22    24   ar
    20    24    25   ar
    21    25    26    1
    22    26    27   ar
    23    27    28   ar
    24    28    29   ar
    25    29    30   ar
    26     5     8    1
    27     9     8    1
    28     9    10    1
    29    17    18   ar
    30    18    12   ar
    31    10     1    1
    32     9     3    1
    33    25    19   ar
    34    30    26   ar
@<TRIPOS>MOLECULE
*****
 30 34 0 0 0
SMALL
GASTEIGER

@<TRIPOS>ATOM
      1 N         143.2511  139.8338  161.5995 N.pl3   1  UNL1       -0.2781
      2 C         143.5575  138.6906  162.5210 C.3     1  UNL1        0.0954
      3 C         143.2585  139.1325  163.9229 C.3     1  UNL1        0.0430
      4 C         143.2631  138.6991  165.3589 C.3     1  UNL1        0.0955
      5 N         142.7748  139.8475  166.1913 N.am    1  UNL1       -0.2759
      6 C         142.6200  139.8519  167.6832 C.2     1  UNL1        0.2505
      7 O         142.9680  138.6276  168.4771 O.2     1  UNL1       -0.2699
      8 C         142.4684  140.9907  165.2697 C.3     1  UNL1        0.0955
      9 C         142.7674  140.5488  163.8678 C.3     1  UNL1        0.0430
     10 C         142.7628  140.9822  162.4318 C.3     1  UNL1        0.0954
     11 C         144.9685  142.0929  157.2467 C.3     1  UNL1        0.0522
     12 C         144.2645  140.9589  157.9311 C.ar    1  UNL1        0.0634
     13 C         143.7153  139.8204  157.1234 C.ar    1  UNL1        0.0296
     14 C         143.0114  138.6864  157.8078 C.ar    1  UNL1        0.0634
     15 C         142.4622  137.5479  157.0003 C.3     1  UNL1        0.0522
     16 N         142.8567  138.6909  159.2998 N.ar    1  UNL1       -0.2180
     17 C         143.4059  139.8294  160.1075 C.ar    1  UNL1        0.2195
     18 N         144.1098  140.9634  159.4231 N.ar    1  UNL1       -0.2180
     19 C         142.1173  141.0806  168.3815 C.ar    1  UNL1        0.0731
     20 C         143.0675  141.9442  169.1569 C.ar    1  UNL1        0.0084
     21 C         142.5648  143.1730  169.8552 C.ar    1  UNL1        0.0299
     22 C         141.1121  143.5381  169.7781 C.ar    1  UNL1        0.1417
     23 F         140.6094  144.7668  170.4763 F       1  UNL1       -0.2041
     24 C         140.1618  142.6745  169.0026 C.ar    1  UNL1        0.0507
     25 C         140.6645  141.4458  168.3043 C.ar    1  UNL1        0.1095
     26 N         139.7143  140.5822  167.5289 N.ar    1  UNL1       -0.1476
     27 N         139.3373  140.7594  166.0879 N.ar    1  UNL1       -0.1447
     28 C         138.3644  139.6765  165.7267 C.ar    1  UNL1        0.1446
     29 C         138.1400  138.8299  166.9445 C.ar    1  UNL1        0.1446
     30 N         138.9743  139.3897  168.0582 N.ar    1  UNL1       -0.1447
@<TRIPOS>BOND
     1    11    12    1
     2    12    13   ar
     3    13    14   ar
     4    14    15    1
     5    14    16   ar
     6    16    17   ar
     7    17     1    1
     8     1     2    1
     9     3     2    1
    10     3     4    1
    11     4     5    1
    12     5     6   am
    13     6     7    2
    14     6    19    1
    15    19    20   ar
    16    20    21   ar
    17    21    22   ar
    18    22    23    1
    19    22    24   ar
    20    24    25   ar
    21    25    26    1
    22    26    27   ar
    23    27    28   ar
    24    28    29   ar
    25    29    30   ar
    26     5     8    1
    27     9     8    1
    28     9    10    1
    29    17    18   ar
    30    18    12   ar
    31    10     1    1
    32     9     3    1
    33    25    19   ar
    34    30    26   ar
@<TRIPOS>MOLECULE
*****
 30 34 0 0 0
SMALL
GASTEIGER

@<TRIPOS>ATOM
      1 N         138.0128  140.6577  158.6548 N.pl3   1  UNL1       -0.2781
      2 C         138.9177  139.4622  158.7006 C.3     1  UNL1        0.0954
      3 C         139.2240  139.1677  160.1392 C.3     1  UNL1        0.0430
      4 C         139.9726  138.2469  161.0566 C.3     1  UNL1        0.0955
      5 N         139.7197  138.6911  162.4668 N.am    1  UNL1       -0.2759
      6 C         140.2742  138.0522  163.7054 C.2     1  UNL1        0.2505
      7 O         141.1713  136.8550  163.5945 O.2     1  UNL1       -0.2699
      8 C         138.8147  139.8866  162.4209 C.3     1  UNL1        0.0955
      9 C         138.5084  140.1811  160.9824 C.3     1  UNL1        0.0430
     10 C         137.7598  141.1019  160.0650 C.3     1  UNL1        0.0954
     11 C         134.8569  140.4874  154.5303 C.3     1  UNL1        0.0522
     12 C         135.8802  141.2116  155.3539 C.ar    1  UNL1        0.0634
     13 C         136.3489  142.5747  154.9390 C.ar    1  UNL1        0.0296
     14 C         137.3722  143.2989  155.7627 C.ar    1  UNL1        0.0634
     15 C         137.8410  144.6620  155.3478 C.3     1  UNL1        0.0522
     16 N         137.9268  142.6598  157.0013 N.ar    1  UNL1       -0.2180
     17 C         137.4581  141.2966  157.4162 C.ar    1  UNL1        0.2195
     18 N         136.4348  140.5725  156.5925 N.ar    1  UNL1       -0.2180
     19 C         139.9318  138.6103  165.0549 C.ar    1  UNL1        0.0731
     20 C         138.5796  138.3541  165.6514 C.ar    1  UNL1        0.0084
     21 C         138.2372  138.9122  167.0010 C.ar    1  UNL1        0.0299
     22 C         139.2469  139.7265  167.7540 C.ar    1  UNL1        0.1417
     23 F         138.9045  140.2845  169.1036 F       1  UNL1       -0.2041
     24 C         140.5993  139.9827  167.1576 C.ar    1  UNL1        0.0507
     25 C         140.9416  139.4246  165.8081 C.ar    1  UNL1        0.1095
     26 N         142.2939  139.6808  165.2116 N.ar    1  UNL1       -0.1476
     27 N         142.6871  140.8801  164.4009 N.ar    1  UNL1       -0.1447
     28 C         144.1266  140.7232  164.0094 C.ar    1  UNL1        0.1446
     29 C         144.6230  139.4270  164.5781 C.ar    1  UNL1        0.1446
     30 N         143.4903  138.7828  165.3211 N.ar    1  UNL1       -0.1447
@<TRIPOS>BOND
     1    11    12    1
     2    12    13   ar
     3    13    14   ar
     4    14    15    1
     5    14    16   ar
     6    16    17   ar
     7    17     1    1
     8     1     2    1
     9     3     2    1
    10     3     4    1
    11     4     5    1
    12     5     6   am
    13     6     7    2
    14     6    19    1
    15    19    20   ar
    16    20    21   ar
    17    21    22   ar
    18    22    23    1
    19    22    24   ar
    20    24    25   ar
    21    25    26    1
    22    26    27   ar
    23    27    28   ar
    24    28    29   ar
    25    29    30   ar
    26     5     8    1
    27     9     8    1
    28     9    10    1
    29    17    18   ar
    30    18    12   ar
    31    10     1    1
    32     9     3    1
    33    25    19   ar
    34    30    26   ar
@<TRIPOS>MOLECULE
*****
 30 34 0 0 0
SMALL
GASTEIGER

@<TRIPOS>ATOM
      1 N         141.9700  139.1186  159.1522 N.pl3   1  UNL1       -0.2781
      2 C         142.5157  140.5054  158.9820 C.3     1  UNL1        0.0954
      3 C         142.5159  141.1716  160.3259 C.3     1  UNL1        0.0430
      4 C         142.8532  142.4404  161.0513 C.3     1  UNL1        0.0955
      5 N         142.5161  142.2496  162.5004 N.am    1  UNL1       -0.2759
      6 C         142.6935  143.2669  163.5883 C.2     1  UNL1        0.2505
      7 O         143.2548  144.6201  163.2655 O.2     1  UNL1       -0.2699
      8 C         141.9703  140.8628  162.6706 C.3     1  UNL1        0.0955
      9 C         141.9702  140.1966  161.3267 C.3     1  UNL1        0.0430
     10 C         141.6328  138.9277  160.6013 C.3     1  UNL1        0.0954
     11 C         143.8315  135.1645  156.3415 C.3     1  UNL1        0.0522
     12 C         142.7232  136.1242  156.6589 C.ar    1  UNL1        0.0634
     13 C         141.4375  136.0665  155.8885 C.ar    1  UNL1        0.0296
     14 C         140.3292  137.0262  156.2059 C.ar    1  UNL1        0.0634
     15 C         139.0435  136.9686  155.4356 C.3     1  UNL1        0.0522
     16 N         140.5068  138.0435  157.2939 N.ar    1  UNL1       -0.2180
     17 C         141.7925  138.1012  158.0643 C.ar    1  UNL1        0.2195
     18 N         142.9008  137.1415  157.7469 N.ar    1  UNL1       -0.2180
     19 C         142.3097  142.9312  164.9989 C.ar    1  UNL1        0.0731
     20 C         143.3626  142.5200  165.9850 C.ar    1  UNL1        0.0084
     21 C         142.9788  142.1843  167.3958 C.ar    1  UNL1        0.0299
     22 C         141.5422  142.2598  167.8203 C.ar    1  UNL1        0.1417
     23 F         141.1584  141.9241  169.2310 F       1  UNL1       -0.2041
     24 C         140.4892  142.6710  166.8343 C.ar    1  UNL1        0.0507
     25 C         140.8730  143.0067  165.4236 C.ar    1  UNL1        0.1095
     26 N         139.8202  143.4179  164.4375 N.ar    1  UNL1       -0.1476
     27 N         139.5096  144.8229  164.0139 N.ar    1  UNL1       -0.1447
     28 C         138.3905  144.7697  163.0165 C.ar    1  UNL1        0.1446
     29 C         138.0095  143.3317  162.8237 C.ar    1  UNL1        0.1446
     30 N         138.8931  142.4964  163.7019 N.ar    1  UNL1       -0.1447
@<TRIPOS>BOND
     1    11    12    1
     2    12    13   ar
     3    13    14   ar
     4    14    15    1
     5    14    16   ar
     6    16    17   ar
     7    17     1    1
     8     1     2    1
     9     3     2    1
    10     3     4    1
    11     4     5    1
    12     5     6   am
    13     6     7    2
    14     6    19    1
    15    19    20   ar
    16    20    21   ar
    17    21    22   ar
    18    22    23    1
    19    22    24   ar
    20    24    25   ar
    21    25    26    1
    22    26    27   ar
    23    27    28   ar
    24    28    29   ar
    25    29    30   ar
    26     5     8    1
    27     9     8    1
    28     9    10    1
    29    17    18   ar
    30    18    12   ar
    31    10     1    1
    32     9     3    1
    33    25    19   ar
    34    30    26   ar
@<TRIPOS>MOLECULE
*****
 30 34 0 0 0
SMALL
GASTEIGER

@<TRIPOS>ATOM
      1 N         140.2958  144.7399  158.7350 N.pl3   1  UNL1       -0.2781
      2 C         140.9841  145.3996  159.8930 C.3     1  UNL1        0.0954
      3 C         140.8726  144.4881  161.0790 C.3     1  UNL1        0.0430
      4 C         141.2291  144.3324  162.5277 C.3     1  UNL1        0.0955
      5 N         140.6921  143.0131  162.9981 N.am    1  UNL1       -0.2759
      6 C         140.8209  142.4521  164.3831 C.2     1  UNL1        0.2505
      7 O         141.5411  143.2307  165.4439 O.2     1  UNL1       -0.2699
      8 C         140.0038  142.3534  161.8400 C.3     1  UNL1        0.0955
      9 C         140.1153  143.2650  160.6540 C.3     1  UNL1        0.0430
     10 C         139.7588  143.4206  159.2053 C.3     1  UNL1        0.0954
     11 C         138.8957  148.6058  155.5579 C.3     1  UNL1        0.0522
     12 C         139.4670  147.2339  155.7613 C.ar    1  UNL1        0.0634
     13 C         139.9095  146.4230  154.5795 C.ar    1  UNL1        0.0296
     14 C         140.4807  145.0510  154.7829 C.ar    1  UNL1        0.0634
     15 C         140.9233  144.2401  153.6012 C.3     1  UNL1        0.0522
     16 N         140.6095  144.4901  156.1681 N.ar    1  UNL1       -0.2180
     17 C         140.1670  145.3010  157.3499 C.ar    1  UNL1        0.2195
     18 N         139.5957  146.6729  157.1465 N.ar    1  UNL1       -0.2180
     19 C         140.2295  141.1123  164.7077 C.ar    1  UNL1        0.0731
     20 C         138.8115  141.0147  165.1869 C.ar    1  UNL1        0.0084
     21 C         138.2200  139.6749  165.5115 C.ar    1  UNL1        0.0299
     22 C         139.0465  138.4329  165.3568 C.ar    1  UNL1        0.1417
     23 F         138.4551  137.0931  165.6813 F       1  UNL1       -0.2041
     24 C         140.4646  138.5304  164.8774 C.ar    1  UNL1        0.0507
     25 C         141.0560  139.8702  164.5529 C.ar    1  UNL1        0.1095
     26 N         142.4740  139.9678  164.0736 N.ar    1  UNL1       -0.1476
     27 N         143.6960  140.0270  164.9416 N.ar    1  UNL1       -0.1447
     28 C         144.8962  140.1191  164.0466 C.ar    1  UNL1        0.1446
     29 C         144.4160  140.1169  162.6255 C.ar    1  UNL1        0.1446
     30 N         142.9190  140.0233  162.6423 N.ar    1  UNL1       -0.1447
@<TRIPOS>BOND
     1    11    12    1
     2    12    13   ar
     3    13    14   ar
     4    14    15    1
     5    14    16   ar
     6    16    17   ar
     7    17     1    1
     8     1     2    1
     9     3     2    1
    10     3     4    1
    11     4     5    1
    12     5     6   am
    13     6     7    2
    14     6    19    1
    15    19    20   ar
    16    20    21   ar
    17    21    22   ar
    18    22    23    1
    19    22    24   ar
    20    24    25   ar
    21    25    26    1
    22    26    27   ar
    23    27    28   ar
    24    28    29   ar
    25    29    30   ar
    26     5     8    1
    27     9     8    1
    28     9    10    1
    29    17    18   ar
    30    18    12   ar
    31    10     1    1
    32     9     3    1
    33    25    19   ar
    34    30    26   ar
@<TRIPOS>MOLECULE
*****
 30 34 0 0 0
SMALL
GASTEIGER

@<TRIPOS>ATOM
      1 N         141.8908  138.8931  159.4477 N.pl3   1  UNL1       -0.2781
      2 C         142.4094  140.2922  159.6017 C.3     1  UNL1        0.0954
      3 C         142.3375  140.6558  161.0552 C.3     1  UNL1        0.0430
      4 C         142.6137  141.7452  162.0486 C.3     1  UNL1        0.0955
      5 N         142.2212  141.2442  163.4070 N.am    1  UNL1       -0.2759
      6 C         142.3286  142.0081  164.6934 C.2     1  UNL1        0.2505
      7 O         142.8699  143.4071  164.6920 O.2     1  UNL1       -0.2699
      8 C         141.7026  139.8451  163.2530 C.3     1  UNL1        0.0955
      9 C         141.7745  139.4815  161.7995 C.3     1  UNL1        0.0430
     10 C         141.4984  138.3921  160.8060 C.3     1  UNL1        0.0954
     11 C         139.0063  137.0279  155.5490 C.3     1  UNL1        0.0522
     12 C         140.3412  137.1966  156.2119 C.ar    1  UNL1        0.0634
     13 C         141.5688  136.6013  155.5884 C.ar    1  UNL1        0.0296
     14 C         142.9037  136.7699  156.2514 C.ar    1  UNL1        0.0634
     15 C         144.1313  136.1747  155.6280 C.3     1  UNL1        0.0522
     16 N         143.0110  137.5339  157.5378 N.ar    1  UNL1       -0.2180
     17 C         141.7834  138.1292  158.1613 C.ar    1  UNL1        0.2195
     18 N         140.4485  137.9605  157.4984 N.ar    1  UNL1       -0.2180
     19 C         141.8946  141.3731  165.9812 C.ar    1  UNL1        0.0731
     20 C         142.8640  140.5480  166.7745 C.ar    1  UNL1        0.0084
     21 C         142.4301  139.9130  168.0624 C.ar    1  UNL1        0.0299
     22 C         141.0268  140.1031  168.5569 C.ar    1  UNL1        0.1417
     23 F         140.5929  139.4681  169.8447 F       1  UNL1       -0.2041
     24 C         140.0574  140.9282  167.7635 C.ar    1  UNL1        0.0507
     25 C         140.4913  141.5632  166.4757 C.ar    1  UNL1        0.1095
     26 N         139.5219  142.3883  165.6824 N.ar    1  UNL1       -0.1476
     27 N         139.4269  143.8853  165.6884 N.ar    1  UNL1       -0.1447
     28 C         138.3236  144.2835  164.7535 C.ar    1  UNL1        0.1446
     29 C         137.7367  143.0327  164.1696 C.ar    1  UNL1        0.1446
     30 N         138.4773  141.8614  164.7437 N.ar    1  UNL1       -0.1447
@<TRIPOS>BOND
     1    11    12    1
     2    12    13   ar
     3    13    14   ar
     4    14    15    1
     5    14    16   ar
     6    16    17   ar
     7    17     1    1
     8     1     2    1
     9     3     2    1
    10     3     4    1
    11     4     5    1
    12     5     6   am
    13     6     7    2
    14     6    19    1
    15    19    20   ar
    16    20    21   ar
    17    21    22   ar
    18    22    23    1
    19    22    24   ar
    20    24    25   ar
    21    25    26    1
    22    26    27   ar
    23    27    28   ar
    24    28    29   ar
    25    29    30   ar
    26     5     8    1
    27     9     8    1
    28     9    10    1
    29    17    18   ar
    30    18    12   ar
    31    10     1    1
    32     9     3    1
    33    25    19   ar
    34    30    26   ar
@<TRIPOS>MOLECULE
*****
 30 34 0 0 0
SMALL
GASTEIGER

@<TRIPOS>ATOM
      1 N         142.0603  138.0286  158.1246 N.pl3   1  UNL1       -0.2781
      2 C         140.6932  138.3551  158.6483 C.3     1  UNL1        0.0954
      3 C         140.8546  139.2641  159.8305 C.3     1  UNL1        0.0430
      4 C         140.1094  140.0277  160.8849 C.3     1  UNL1        0.0955
      5 N         141.1157  140.7350  161.7435 N.am    1  UNL1       -0.2759
      6 C         140.8088  141.6142  162.9192 C.2     1  UNL1        0.2505
      7 O         139.3849  141.8502  163.3280 O.2     1  UNL1       -0.2699
      8 C         142.4829  140.4084  161.2197 C.3     1  UNL1        0.0955
      9 C         142.3215  139.4994  160.0375 C.3     1  UNL1        0.0430
     10 C         143.0667  138.7358  158.9832 C.3     1  UNL1        0.0954
     11 C         143.9156  133.5726  156.2007 C.3     1  UNL1        0.0522
     12 C         143.2949  134.9213  155.9868 C.ar    1  UNL1        0.0634
     13 C         142.9812  135.3906  154.5971 C.ar    1  UNL1        0.0296
     14 C         142.3605  136.7393  154.3832 C.ar    1  UNL1        0.0634
     15 C         142.0468  137.2088  152.9936 C.3     1  UNL1        0.0522
     16 N         142.0536  137.6186  155.5591 N.ar    1  UNL1       -0.2180
     17 C         142.3673  137.1493  156.9488 C.ar    1  UNL1        0.2195
     18 N         142.9880  135.8006  157.1627 N.ar    1  UNL1       -0.2180
     19 C         141.9256  142.2577  163.6864 C.ar    1  UNL1        0.0731
     20 C         142.5993  141.5104  164.7989 C.ar    1  UNL1        0.0084
     21 C         143.7162  142.1539  165.5661 C.ar    1  UNL1        0.0299
     22 C         144.1594  143.5446  165.2207 C.ar    1  UNL1        0.1417
     23 F         145.2763  144.1881  165.9879 F       1  UNL1       -0.2041
     24 C         143.4858  144.2920  164.1082 C.ar    1  UNL1        0.0507
     25 C         142.3689  143.6485  163.3411 C.ar    1  UNL1        0.1095
     26 N         141.6953  144.3959  162.2285 N.ar    1  UNL1       -0.1476
     27 N         142.1056  144.3876  160.7858 N.ar    1  UNL1       -0.1447
     28 C         141.1569  145.2693  160.0290 C.ar    1  UNL1        0.1446
     29 C         140.1603  145.8224  161.0041 C.ar    1  UNL1        0.1446
     30 N         140.4930  145.2826  162.3634 N.ar    1  UNL1       -0.1447
@<TRIPOS>BOND
     1    11    12    1
     2    12    13   ar
     3    13    14   ar
     4    14    15    1
     5    14    16   ar
     6    16    17   ar
     7    17     1    1
     8     1     2    1
     9     3     2    1
    10     3     4    1
    11     4     5    1
    12     5     6   am
    13     6     7    2
    14     6    19    1
    15    19    20   ar
    16    20    21   ar
    17    21    22   ar
    18    22    23    1
    19    22    24   ar
    20    24    25   ar
    21    25    26    1
    22    26    27   ar
    23    27    28   ar
    24    28    29   ar
    25    29    30   ar
    26     5     8    1
    27     9     8    1
    28     9    10    1
    29    17    18   ar
    30    18    12   ar
    31    10     1    1
    32     9     3    1
    33    25    19   ar
    34    30    26   ar
