@<TRIPOS>MOLECULE
*****
 38 42 0 0 0
SMALL
GASTEIGER

@<TRIPOS>ATOM
      1 C         138.5610  140.0405  156.7381 C.3     1  UNL1        0.1024
      2 C         137.9721  140.6955  155.5239 C.3     1  UNL1        0.0643
      3 C         137.4075  142.0819  155.6192 C.3     1  UNL1        0.1368
      4 C         136.7558  143.3695  155.2103 C.3     1  UNL1        0.0437
      5 C         137.1569  141.7977  154.1678 C.3     1  UNL1        0.0437
      6 O         137.4316  142.8133  156.9285 O.3     1  UNL1       -0.4676
      7 C         138.0205  142.1583  158.1427 C.ar    1  UNL1        0.2219
      8 N         138.0446  142.8897  159.4521 N.ar    1  UNL1       -0.2119
      9 C         138.6335  142.2348  160.6662 C.ar    1  UNL1        0.0851
     10 C         139.1982  140.8483  160.5711 C.ar    1  UNL1        0.0177
     11 C         139.1740  140.1169  159.2617 C.ar    1  UNL1        0.0034
     12 C         138.5852  140.7719  158.0475 C.ar    1  UNL1        0.0488
     13 C         138.6577  142.9662  161.9756 C.ar    1  UNL1        0.0284
     14 C         137.5843  142.7175  162.9935 C.ar    1  UNL1        0.0032
     15 C         137.6084  143.4489  164.3029 C.ar    1  UNL1        0.0115
     16 C         138.7060  144.4290  164.5944 C.ar    1  UNL1        0.0585
     17 CL        138.7302  145.1604  165.9038 Cl      1  UNL1       -0.0822
     18 C         139.7793  144.6776  163.5765 C.ar    1  UNL1        0.0228
     19 C         139.7551  143.9462  162.2671 C.ar    1  UNL1        0.0599
     20 CL        140.8284  144.1949  161.2492 Cl      1  UNL1       -0.0822
     21 C         139.7870  140.1934  161.7853 C.ar    1  UNL1        0.0015
     22 C         138.9513  139.2662  162.6170 C.ar    1  UNL1        0.0009
     23 C         139.5402  138.6112  163.8312 C.ar    1  UNL1        0.0114
     24 C         140.9648  138.8834  164.2137 C.ar    1  UNL1        0.0577
     25 CL        141.5536  138.2285  165.4278 Cl      1  UNL1       -0.0822
     26 C         141.8006  139.8106  163.3819 C.ar    1  UNL1        0.0114
     27 C         141.2117  140.4656  162.1677 C.ar    1  UNL1        0.0009
     28 C         140.5735  138.4556  156.3047 C.2     1  UNL1        0.2838
     29 O         141.4566  139.6436  156.0617 O.2     1  UNL1       -0.2667
     30 N         139.1257  138.6541  156.6430 N.am    1  UNL1       -0.2959
     31 H         138.5461  137.8745  156.8025 H       1  UNL1        0.1501
     32 C         143.6717  134.2366  156.9990 C.3     1  UNL1        0.0731
     33 C         142.5624  135.1300  156.5287 C.ar    1  UNL1        0.1349
     34 N         142.3683  136.5685  156.9069 N.ar    1  UNL1       -0.2070
     35 C         141.1383  137.0693  156.2096 C.ar    1  UNL1        0.2363
     36 N         140.5721  135.9403  155.4004 N.ar    1  UNL1       -0.1474
     37 N         141.4522  134.7418  155.5975 N.ar    1  UNL1       -0.2615
     38 H         141.3238  133.8558  155.1878 H       1  UNL1        0.1903
@<TRIPOS>BOND
     1    32    33    1
     2    33    34   ar
     3    34    35   ar
     4    35    28    1
     5    28    29    2
     6    28    30   am
     7     1    30    1
     8     1     2    1
     9     2     3    1
    10     3     4    1
    11     3     5    1
    12     3     6    1
    13     6     7    1
    14     7     8   ar
    15     8     9   ar
    16     9    13    1
    17    13    14   ar
    18    14    15   ar
    19    15    16   ar
    20    16    17    1
    21    16    18   ar
    22    18    19   ar
    23    19    20    1
    24     9    10   ar
    25    10    21    1
    26    21    22   ar
    27    22    23   ar
    28    23    24   ar
    29    24    25    1
    30    24    26   ar
    31    26    27   ar
    32    10    11   ar
    33    11    12   ar
    34    35    36   ar
    35    36    37   ar
    36    37    33   ar
    37    12     1    1
    38    12     7   ar
    39    19    13   ar
    40    27    21   ar
    41    30    31    1
    42    37    38    1
@<TRIPOS>MOLECULE
*****
 38 42 0 0 0
SMALL
GASTEIGER

@<TRIPOS>ATOM
      1 C         139.6829  140.5423  156.5263 C.3     1  UNL1        0.1024
      2 C         138.7058  140.8086  155.4198 C.3     1  UNL1        0.0643
      3 C         137.5453  141.7306  155.6498 C.3     1  UNL1        0.1368
      4 C         136.2980  142.5201  155.3835 C.3     1  UNL1        0.0437
      5 C         137.2955  141.3491  154.2208 C.3     1  UNL1        0.0437
      6 O         137.3618  142.3864  156.9863 O.3     1  UNL1       -0.4676
      7 C         138.3389  142.1202  158.0928 C.ar    1  UNL1        0.2219
      8 N         138.1554  142.7760  159.4293 N.ar    1  UNL1       -0.2119
      9 C         139.1325  142.5097  160.5358 C.ar    1  UNL1        0.0851
     10 C         140.2931  141.5877  160.3058 C.ar    1  UNL1        0.0177
     11 C         140.4766  140.9319  158.9693 C.ar    1  UNL1        0.0034
     12 C         139.4994  141.1981  157.8628 C.ar    1  UNL1        0.0488
     13 C         138.9490  143.1655  161.8723 C.ar    1  UNL1        0.0284
     14 C         139.6384  144.4638  162.1717 C.ar    1  UNL1        0.0032
     15 C         139.4549  145.1195  163.5082 C.ar    1  UNL1        0.0115
     16 C         138.5821  144.4771  164.5454 C.ar    1  UNL1        0.0585
     17 CL        138.3986  145.1329  165.8819 Cl      1  UNL1       -0.0822
     18 C         137.8929  143.1790  164.2460 C.ar    1  UNL1        0.0228
     19 C         138.0763  142.5232  162.9095 C.ar    1  UNL1        0.0599
     20 CL        137.3871  141.2250  162.6101 Cl      1  UNL1       -0.0822
     21 C         141.2702  141.3214  161.4123 C.ar    1  UNL1        0.0015
     22 C         142.5158  142.1492  161.5284 C.ar    1  UNL1        0.0009
     23 C         143.4929  141.8829  162.6350 C.ar    1  UNL1        0.0114
     24 C         143.2244  140.7889  163.6254 C.ar    1  UNL1        0.0577
     25 CL        144.2015  140.5227  164.7319 Cl      1  UNL1       -0.0822
     26 C         141.9789  139.9612  163.5094 C.ar    1  UNL1        0.0114
     27 C         141.0018  140.2274  162.4029 C.ar    1  UNL1        0.0009
     28 C         140.7331  138.1699  156.6626 C.2     1  UNL1        0.2838
     29 O         139.4621  137.6416  157.2588 O.2     1  UNL1       -0.2667
     30 N         140.8435  139.6203  156.2963 N.am    1  UNL1       -0.2959
     31 H         141.6777  139.9670  155.9050 H       1  UNL1        0.1501
     32 C         143.5904  133.8235  155.7543 C.3     1  UNL1        0.0731
     33 C         143.2070  135.2500  156.0151 C.ar    1  UNL1        0.1349
     34 N         141.8112  135.7691  156.1945 N.ar    1  UNL1       -0.2070
     35 C         141.8937  137.2478  156.4326 C.ar    1  UNL1        0.2363
     36 N         143.3404  137.6426  156.4004 N.ar    1  UNL1       -0.1474
     37 N         144.1522  136.4078  156.1424 N.ar    1  UNL1       -0.2615
     38 H         145.1330  136.3649  156.0694 H       1  UNL1        0.1903
@<TRIPOS>BOND
     1    32    33    1
     2    33    34   ar
     3    34    35   ar
     4    35    28    1
     5    28    29    2
     6    28    30   am
     7     1    30    1
     8     1     2    1
     9     2     3    1
    10     3     4    1
    11     3     5    1
    12     3     6    1
    13     6     7    1
    14     7     8   ar
    15     8     9   ar
    16     9    13    1
    17    13    14   ar
    18    14    15   ar
    19    15    16   ar
    20    16    17    1
    21    16    18   ar
    22    18    19   ar
    23    19    20    1
    24     9    10   ar
    25    10    21    1
    26    21    22   ar
    27    22    23   ar
    28    23    24   ar
    29    24    25    1
    30    24    26   ar
    31    26    27   ar
    32    10    11   ar
    33    11    12   ar
    34    35    36   ar
    35    36    37   ar
    36    37    33   ar
    37    12     1    1
    38    12     7   ar
    39    19    13   ar
    40    27    21   ar
    41    30    31    1
    42    37    38    1
@<TRIPOS>MOLECULE
*****
 38 42 0 0 0
SMALL
GASTEIGER

@<TRIPOS>ATOM
      1 C         138.3027  143.3141  156.9232 C.3     1  UNL1        0.1024
      2 C         138.7188  144.0154  155.6643 C.3     1  UNL1        0.0643
      3 C         140.0290  144.7434  155.6094 C.3     1  UNL1        0.1368
      4 C         141.1659  145.5608  155.0714 C.3     1  UNL1        0.0437
      5 C         139.5298  145.0006  154.2185 C.3     1  UNL1        0.0437
      6 O         140.9232  144.7702  156.8134 O.3     1  UNL1       -0.4676
      7 C         140.5071  144.0688  158.0723 C.ar    1  UNL1        0.2219
      8 N         141.4013  144.0956  159.2764 N.ar    1  UNL1       -0.2119
      9 C         140.9852  143.3943  160.5353 C.ar    1  UNL1        0.0851
     10 C         139.6749  142.6661  160.5903 C.ar    1  UNL1        0.0177
     11 C         138.7807  142.6394  159.3862 C.ar    1  UNL1        0.0034
     12 C         139.1969  143.3408  158.1272 C.ar    1  UNL1        0.0488
     13 C         141.8794  143.4210  161.7394 C.ar    1  UNL1        0.0284
     14 C         142.8966  142.3374  161.9423 C.ar    1  UNL1        0.0032
     15 C         143.7908  142.3641  163.1464 C.ar    1  UNL1        0.0115
     16 C         143.6678  143.4744  164.1474 C.ar    1  UNL1        0.0585
     17 CL        144.5620  143.5012  165.3515 Cl      1  UNL1       -0.0822
     18 C         142.6506  144.5580  163.9444 C.ar    1  UNL1        0.0228
     19 C         141.7565  144.5312  162.7404 C.ar    1  UNL1        0.0599
     20 CL        140.7393  145.6148  162.5374 Cl      1  UNL1       -0.0822
     21 C         139.2588  141.9648  161.8492 C.ar    1  UNL1        0.0015
     22 C         138.4446  142.6913  162.8784 C.ar    1  UNL1        0.0009
     23 C         138.0285  141.9899  164.1374 C.ar    1  UNL1        0.0114
     24 C         138.4266  140.5621  164.3671 C.ar    1  UNL1        0.0577
     25 CL        138.0105  139.8608  165.6261 Cl      1  UNL1       -0.0822
     26 C         139.2408  139.8356  163.3379 C.ar    1  UNL1        0.0114
     27 C         139.6569  140.5369  162.0790 C.ar    1  UNL1        0.0009
     28 C         136.6844  141.5189  155.9699 C.2     1  UNL1        0.2838
     29 O         137.6869  141.1799  154.9067 O.2     1  UNL1       -0.2667
     30 N         136.9923  142.5860  156.9782 N.am    1  UNL1       -0.2959
     31 H         136.3344  142.8085  157.6759 H       1  UNL1        0.1501
     32 C         132.6489  138.5631  157.6606 C.3     1  UNL1        0.0731
     33 C         133.5192  139.4321  156.8020 C.ar    1  UNL1        0.1349
     34 N         134.8651  139.9774  157.1778 N.ar    1  UNL1       -0.2070
     35 C         135.3742  140.7908  156.0248 C.ar    1  UNL1        0.2363
     36 N         134.3429  140.7483  154.9364 N.ar    1  UNL1       -0.1474
     37 N         133.1965  139.9086  155.4167 N.ar    1  UNL1       -0.2615
     38 H         132.3762  139.7058  154.9114 H       1  UNL1        0.1903
@<TRIPOS>BOND
     1    32    33    1
     2    33    34   ar
     3    34    35   ar
     4    35    28    1
     5    28    29    2
     6    28    30   am
     7     1    30    1
     8     1     2    1
     9     2     3    1
    10     3     4    1
    11     3     5    1
    12     3     6    1
    13     6     7    1
    14     7     8   ar
    15     8     9   ar
    16     9    13    1
    17    13    14   ar
    18    14    15   ar
    19    15    16   ar
    20    16    17    1
    21    16    18   ar
    22    18    19   ar
    23    19    20    1
    24     9    10   ar
    25    10    21    1
    26    21    22   ar
    27    22    23   ar
    28    23    24   ar
    29    24    25    1
    30    24    26   ar
    31    26    27   ar
    32    10    11   ar
    33    11    12   ar
    34    35    36   ar
    35    36    37   ar
    36    37    33   ar
    37    12     1    1
    38    12     7   ar
    39    19    13   ar
    40    27    21   ar
    41    30    31    1
    42    37    38    1
@<TRIPOS>MOLECULE
*****
 38 42 0 0 0
SMALL
GASTEIGER

@<TRIPOS>ATOM
      1 C         141.9354  139.8821  157.3577 C.3     1  UNL1        0.1024
      2 C         141.3293  139.1874  156.1745 C.3     1  UNL1        0.0643
      3 C         140.1393  138.2930  156.3584 C.3     1  UNL1        0.1368
      4 C         139.0167  137.3548  156.0275 C.3     1  UNL1        0.0437
      5 C         140.3333  138.1669  154.8763 C.3     1  UNL1        0.0437
      6 O         139.5553  138.0933  157.7255 O.3     1  UNL1       -0.4676
      7 C         140.1614  138.7879  158.9087 C.ar    1  UNL1        0.2219
      8 N         139.5774  138.5881  160.2759 N.ar    1  UNL1       -0.2119
      9 C         140.1835  139.2827  161.4591 C.ar    1  UNL1        0.0851
     10 C         141.3736  140.1772  161.2753 C.ar    1  UNL1        0.0177
     11 C         141.9575  140.3770  159.9082 C.ar    1  UNL1        0.0034
     12 C         141.3514  139.6823  158.7249 C.ar    1  UNL1        0.0488
     13 C         139.5995  139.0830  162.8263 C.ar    1  UNL1        0.0284
     14 C         138.5599  140.0325  163.3439 C.ar    1  UNL1        0.0032
     15 C         137.9760  139.8327  164.7110 C.ar    1  UNL1        0.0115
     16 C         138.4316  138.6834  165.5606 C.ar    1  UNL1        0.0585
     17 CL        137.8476  138.4837  166.9277 Cl      1  UNL1       -0.0822
     18 C         139.4711  137.7340  165.0430 C.ar    1  UNL1        0.0228
     19 C         140.0550  137.9338  163.6758 C.ar    1  UNL1        0.0599
     20 CL        141.0946  136.9844  163.1582 Cl      1  UNL1       -0.0822
     21 C         141.9796  140.8718  162.4586 C.ar    1  UNL1        0.0015
     22 C         143.0220  140.1769  163.2834 C.ar    1  UNL1        0.0009
     23 C         143.6281  140.8716  164.4667 C.ar    1  UNL1        0.0114
     24 C         143.1917  142.2612  164.8251 C.ar    1  UNL1        0.0577
     25 CL        143.7978  142.9558  166.0084 Cl      1  UNL1       -0.0822
     26 C         142.1493  142.9561  164.0003 C.ar    1  UNL1        0.0114
     27 C         141.5432  142.2615  162.8171 C.ar    1  UNL1        0.0009
     28 C         144.3938  140.2270  156.5913 C.2     1  UNL1        0.2838
     29 O         144.4720  138.7831  156.1925 O.2     1  UNL1       -0.2667
     30 N         143.1255  140.7765  157.1739 N.am    1  UNL1       -0.2959
     31 H         143.0741  141.7242  157.4356 H       1  UNL1        0.1501
     32 C         148.8718  142.3058  154.7186 C.3     1  UNL1        0.0731
     33 C         147.6421  142.0769  155.5466 C.ar    1  UNL1        0.1349
     34 N         146.6506  140.9662  155.3644 N.ar    1  UNL1       -0.2070
     35 C         145.5838  141.1214  156.4074 C.ar    1  UNL1        0.2363
     36 N         145.9160  142.3280  157.2343 N.ar    1  UNL1       -0.1474
     37 N         147.1881  142.9185  156.7024 N.ar    1  UNL1       -0.2615
     38 H         147.6449  143.7181  157.0506 H       1  UNL1        0.1903
@<TRIPOS>BOND
     1    32    33    1
     2    33    34   ar
     3    34    35   ar
     4    35    28    1
     5    28    29    2
     6    28    30   am
     7     1    30    1
     8     1     2    1
     9     2     3    1
    10     3     4    1
    11     3     5    1
    12     3     6    1
    13     6     7    1
    14     7     8   ar
    15     8     9   ar
    16     9    13    1
    17    13    14   ar
    18    14    15   ar
    19    15    16   ar
    20    16    17    1
    21    16    18   ar
    22    18    19   ar
    23    19    20    1
    24     9    10   ar
    25    10    21    1
    26    21    22   ar
    27    22    23   ar
    28    23    24   ar
    29    24    25    1
    30    24    26   ar
    31    26    27   ar
    32    10    11   ar
    33    11    12   ar
    34    35    36   ar
    35    36    37   ar
    36    37    33   ar
    37    12     1    1
    38    12     7   ar
    39    19    13   ar
    40    27    21   ar
    41    30    31    1
    42    37    38    1
@<TRIPOS>MOLECULE
*****
 38 42 0 0 0
SMALL
GASTEIGER

@<TRIPOS>ATOM
      1 C         140.8724  138.5279  156.3949 C.3     1  UNL1        0.1024
      2 C         141.6591  137.6977  155.4244 C.3     1  UNL1        0.0643
      3 C         142.7983  136.8524  155.9119 C.3     1  UNL1        0.1368
      4 C         143.9546  135.8972  155.8904 C.3     1  UNL1        0.0437
      5 C         142.8475  136.5357  154.4465 C.3     1  UNL1        0.0437
      6 O         143.1508  136.8373  157.3698 O.3     1  UNL1       -0.4676
      7 C         142.3641  137.6675  158.3402 C.ar    1  UNL1        0.2219
      8 N         142.7166  137.6524  159.7982 N.ar    1  UNL1       -0.2119
      9 C         141.9299  138.4826  160.7686 C.ar    1  UNL1        0.0851
     10 C         140.7906  139.3280  160.2812 C.ar    1  UNL1        0.0177
     11 C         140.4381  139.3430  158.8233 C.ar    1  UNL1        0.0034
     12 C         141.2249  138.5128  157.8528 C.ar    1  UNL1        0.0488
     13 C         142.2824  138.4675  162.2265 C.ar    1  UNL1        0.0284
     14 C         141.5046  137.6066  163.1773 C.ar    1  UNL1        0.0032
     15 C         141.8572  137.5916  164.6352 C.ar    1  UNL1        0.0115
     16 C         142.9875  138.4374  165.1424 C.ar    1  UNL1        0.0585
     17 CL        143.3400  138.4223  166.6003 Cl      1  UNL1       -0.0822
     18 C         143.7652  139.2982  164.1916 C.ar    1  UNL1        0.0228
     19 C         143.4127  139.3133  162.7336 C.ar    1  UNL1        0.0599
     20 CL        144.1904  140.1741  161.7829 Cl      1  UNL1       -0.0822
     21 C         140.0039  140.1581  161.2516 C.ar    1  UNL1        0.0015
     22 C         138.7103  139.6393  161.8060 C.ar    1  UNL1        0.0009
     23 C         137.9236  140.4696  162.7766 C.ar    1  UNL1        0.0114
     24 C         138.4305  141.8186  163.1926 C.ar    1  UNL1        0.0577
     25 CL        137.6438  142.6488  164.1631 Cl      1  UNL1       -0.0822
     26 C         139.7241  142.3374  162.6382 C.ar    1  UNL1        0.0114
     27 C         140.5108  141.5072  161.6677 C.ar    1  UNL1        0.0009
     28 C         138.4390  138.7290  155.5070 C.2     1  UNL1        0.2838
     29 O         138.2842  137.2395  155.5941 O.2     1  UNL1       -0.2667
     30 N         139.7331  139.3732  155.9074 N.am    1  UNL1       -0.2959
     31 H         139.8348  140.3508  155.8503 H       1  UNL1        0.1501
     32 C         133.6924  141.0051  155.0944 C.3     1  UNL1        0.0731
     33 C         135.1180  140.6205  154.8299 C.ar    1  UNL1        0.1349
     34 N         135.9366  139.6593  155.6398 N.ar    1  UNL1       -0.2070
     35 C         137.2997  139.5743  155.0196 C.ar    1  UNL1        0.2363
     36 N         137.3236  140.4829  153.8264 N.ar    1  UNL1       -0.1474
     37 N         135.9752  141.1295  153.7092 N.ar    1  UNL1       -0.2615
     38 H         135.7010  141.7747  153.0180 H       1  UNL1        0.1903
@<TRIPOS>BOND
     1    32    33    1
     2    33    34   ar
     3    34    35   ar
     4    35    28    1
     5    28    29    2
     6    28    30   am
     7     1    30    1
     8     1     2    1
     9     2     3    1
    10     3     4    1
    11     3     5    1
    12     3     6    1
    13     6     7    1
    14     7     8   ar
    15     8     9   ar
    16     9    13    1
    17    13    14   ar
    18    14    15   ar
    19    15    16   ar
    20    16    17    1
    21    16    18   ar
    22    18    19   ar
    23    19    20    1
    24     9    10   ar
    25    10    21    1
    26    21    22   ar
    27    22    23   ar
    28    23    24   ar
    29    24    25    1
    30    24    26   ar
    31    26    27   ar
    32    10    11   ar
    33    11    12   ar
    34    35    36   ar
    35    36    37   ar
    36    37    33   ar
    37    12     1    1
    38    12     7   ar
    39    19    13   ar
    40    27    21   ar
    41    30    31    1
    42    37    38    1
@<TRIPOS>MOLECULE
*****
 38 42 0 0 0
SMALL
GASTEIGER

@<TRIPOS>ATOM
      1 C         143.5010  143.0715  156.8028 C.3     1  UNL1        0.1024
      2 C         144.2465  142.4631  155.6521 C.3     1  UNL1        0.0643
      3 C         144.9500  141.1496  155.8247 C.3     1  UNL1        0.1368
      4 C         145.7666  139.9345  155.4984 C.3     1  UNL1        0.0437
      5 C         145.2756  141.4326  154.3881 C.3     1  UNL1        0.0437
      6 O         144.9081  140.4446  157.1481 O.3     1  UNL1       -0.4676
      7 C         144.1627  141.0530  158.2987 C.ar    1  UNL1        0.2219
      8 N         144.1208  140.3479  159.6221 N.ar    1  UNL1       -0.2119
      9 C         143.3754  140.9563  160.7728 C.ar    1  UNL1        0.0851
     10 C         142.6718  142.2698  160.6002 C.ar    1  UNL1        0.0177
     11 C         142.7137  142.9749  159.2769 C.ar    1  UNL1        0.0034
     12 C         143.4592  142.3664  158.1261 C.ar    1  UNL1        0.0488
     13 C         143.3335  140.2513  162.0961 C.ar    1  UNL1        0.0284
     14 C         142.2576  139.2441  162.3755 C.ar    1  UNL1        0.0032
     15 C         142.2157  138.5391  163.6989 C.ar    1  UNL1        0.0115
     16 C         143.2497  138.8412  164.7427 C.ar    1  UNL1        0.0585
     17 CL        143.2079  138.1361  166.0660 Cl      1  UNL1       -0.0822
     18 C         144.3256  139.8483  164.4632 C.ar    1  UNL1        0.0228
     19 C         144.3675  140.5534  163.1399 C.ar    1  UNL1        0.0599
     20 CL        145.4434  141.5605  162.8604 Cl      1  UNL1       -0.0822
     21 C         141.9264  142.8782  161.7509 C.ar    1  UNL1        0.0015
     22 C         142.6130  143.8585  162.6550 C.ar    1  UNL1        0.0009
     23 C         141.8675  144.4670  163.8058 C.ar    1  UNL1        0.0114
     24 C         140.4354  144.0950  164.0523 C.ar    1  UNL1        0.0577
     25 CL        139.6900  144.7034  165.2030 Cl      1  UNL1       -0.0822
     26 C         139.7488  143.1147  163.1481 C.ar    1  UNL1        0.0114
     27 C         140.4942  142.5063  161.9974 C.ar    1  UNL1        0.0009
     28 C         141.3888  144.4193  156.1159 C.2     1  UNL1        0.2838
     29 O         140.6837  143.1401  155.7742 O.2     1  UNL1       -0.2667
     30 N         142.7974  144.3850  156.6302 N.am    1  UNL1       -0.2959
     31 H         143.2602  145.2245  156.8545 H       1  UNL1        0.1501
     32 C         139.6132  148.9274  154.0170 C.3     1  UNL1        0.0731
     33 C         139.8690  147.8049  154.9786 C.ar    1  UNL1        0.1349
     34 N         140.7029  146.5872  154.7106 N.ar    1  UNL1       -0.2070
     35 C         140.6852  145.7327  155.9434 C.ar    1  UNL1        0.2363
     36 N         139.8402  146.4223  156.9732 N.ar    1  UNL1       -0.1474
     37 N         139.3358  147.7029  156.3770 N.ar    1  UNL1       -0.2615
     38 H         138.7565  148.3610  156.8248 H       1  UNL1        0.1903
@<TRIPOS>BOND
     1    32    33    1
     2    33    34   ar
     3    34    35   ar
     4    35    28    1
     5    28    29    2
     6    28    30   am
     7     1    30    1
     8     1     2    1
     9     2     3    1
    10     3     4    1
    11     3     5    1
    12     3     6    1
    13     6     7    1
    14     7     8   ar
    15     8     9   ar
    16     9    13    1
    17    13    14   ar
    18    14    15   ar
    19    15    16   ar
    20    16    17    1
    21    16    18   ar
    22    18    19   ar
    23    19    20    1
    24     9    10   ar
    25    10    21    1
    26    21    22   ar
    27    22    23   ar
    28    23    24   ar
    29    24    25    1
    30    24    26   ar
    31    26    27   ar
    32    10    11   ar
    33    11    12   ar
    34    35    36   ar
    35    36    37   ar
    36    37    33   ar
    37    12     1    1
    38    12     7   ar
    39    19    13   ar
    40    27    21   ar
    41    30    31    1
    42    37    38    1
@<TRIPOS>MOLECULE
*****
 38 42 0 0 0
SMALL
GASTEIGER

@<TRIPOS>ATOM
      1 C         139.9254  140.9074  156.9954 C.3     1  UNL1        0.1024
      2 C         138.7892  141.0650  156.0289 C.3     1  UNL1        0.0643
      3 C         137.3754  140.8898  156.4983 C.3     1  UNL1        0.1368
      4 C         135.8773  140.8219  156.4651 C.3     1  UNL1        0.0437
      5 C         137.1327  141.1991  155.0508 C.3     1  UNL1        0.0437
      6 O         137.0978  140.5568  157.9343 O.3     1  UNL1       -0.4676
      7 C         138.2339  140.3992  158.9009 C.ar    1  UNL1        0.2219
      8 N         137.9563  140.0663  160.3369 N.ar    1  UNL1       -0.2119
      9 C         139.0925  139.9086  161.3034 C.ar    1  UNL1        0.0851
     10 C         140.5064  140.0839  160.8340 C.ar    1  UNL1        0.0177
     11 C         140.7840  140.4168  159.3980 C.ar    1  UNL1        0.0034
     12 C         139.6477  140.5745  158.4314 C.ar    1  UNL1        0.0488
     13 C         138.8148  139.5757  162.7394 C.ar    1  UNL1        0.0284
     14 C         138.9391  138.1597  163.2186 C.ar    1  UNL1        0.0032
     15 C         138.6615  137.8268  164.6546 C.ar    1  UNL1        0.0115
     16 C         138.2596  138.9099  165.6114 C.ar    1  UNL1        0.0585
     17 CL        137.9820  138.5770  167.0474 Cl      1  UNL1       -0.0822
     18 C         138.1353  140.3258  165.1322 C.ar    1  UNL1        0.0228
     19 C         138.4129  140.6587  163.6962 C.ar    1  UNL1        0.0599
     20 CL        138.2887  142.0747  163.2170 Cl      1  UNL1       -0.0822
     21 C         141.6425  139.9262  161.8005 C.ar    1  UNL1        0.0015
     22 C         142.3947  138.6303  161.8689 C.ar    1  UNL1        0.0009
     23 C         143.5309  138.4727  162.8355 C.ar    1  UNL1        0.0114
     24 C         143.9149  139.6110  163.7336 C.ar    1  UNL1        0.0577
     25 CL        145.0510  139.4533  164.7002 Cl      1  UNL1       -0.0822
     26 C         143.1627  140.9069  163.6653 C.ar    1  UNL1        0.0114
     27 C         142.0265  141.0646  162.6987 C.ar    1  UNL1        0.0009
     28 C         142.2096  139.8816  156.3024 C.2     1  UNL1        0.2838
     29 O         141.6660  138.5053  156.5483 O.2     1  UNL1       -0.2667
     30 N         141.3392  141.0826  156.5260 N.am    1  UNL1       -0.2959
     31 H         141.6959  141.9859  156.3646 H       1  UNL1        0.1501
     32 C         146.4209  141.4232  153.5152 C.3     1  UNL1        0.0731
     33 C         145.5591  140.7654  154.5518 C.ar    1  UNL1        0.1349
     34 N         144.0662  140.8700  154.6530 N.ar    1  UNL1       -0.2070
     35 C         143.6234  140.0568  155.8330 C.ar    1  UNL1        0.2363
     36 N         144.8426  139.4495  156.4612 N.ar    1  UNL1       -0.1474
     37 N         146.0390  139.8874  155.6694 N.ar    1  UNL1       -0.2615
     38 H         146.9748  139.6417  155.8513 H       1  UNL1        0.1903
@<TRIPOS>BOND
     1    32    33    1
     2    33    34   ar
     3    34    35   ar
     4    35    28    1
     5    28    29    2
     6    28    30   am
     7     1    30    1
     8     1     2    1
     9     2     3    1
    10     3     4    1
    11     3     5    1
    12     3     6    1
    13     6     7    1
    14     7     8   ar
    15     8     9   ar
    16     9    13    1
    17    13    14   ar
    18    14    15   ar
    19    15    16   ar
    20    16    17    1
    21    16    18   ar
    22    18    19   ar
    23    19    20    1
    24     9    10   ar
    25    10    21    1
    26    21    22   ar
    27    22    23   ar
    28    23    24   ar
    29    24    25    1
    30    24    26   ar
    31    26    27   ar
    32    10    11   ar
    33    11    12   ar
    34    35    36   ar
    35    36    37   ar
    36    37    33   ar
    37    12     1    1
    38    12     7   ar
    39    19    13   ar
    40    27    21   ar
    41    30    31    1
    42    37    38    1
@<TRIPOS>MOLECULE
*****
 38 42 0 0 0
SMALL
GASTEIGER

@<TRIPOS>ATOM
      1 C         141.2839  139.5022  156.7834 C.3     1  UNL1        0.1024
      2 C         141.8604  138.5663  155.7628 C.3     1  UNL1        0.0643
      3 C         142.7675  137.4524  156.1945 C.3     1  UNL1        0.1368
      4 C         143.6685  136.2560  156.1118 C.3     1  UNL1        0.0437
      5 C         142.7499  137.2148  154.7135 C.3     1  UNL1        0.0437
      6 O         143.0981  137.2744  157.6467 O.3     1  UNL1       -0.4676
      7 C         142.5216  138.2103  158.6673 C.ar    1  UNL1        0.2219
      8 N         142.8521  138.0323  160.1196 N.ar    1  UNL1       -0.2119
      9 C         142.2756  138.9682  161.1402 C.ar    1  UNL1        0.0851
     10 C         141.3684  140.0822  160.7085 C.ar    1  UNL1        0.0177
     11 C         141.0378  140.2602  159.2563 C.ar    1  UNL1        0.0034
     12 C         141.6144  139.3242  158.2357 C.ar    1  UNL1        0.0488
     13 C         142.6062  138.7902  162.5924 C.ar    1  UNL1        0.0284
     14 C         143.8446  139.4163  163.1619 C.ar    1  UNL1        0.0032
     15 C         144.1752  139.2384  164.6142 C.ar    1  UNL1        0.0115
     16 C         143.2673  138.4343  165.4969 C.ar    1  UNL1        0.0585
     17 CL        143.5979  138.2563  166.9492 Cl      1  UNL1       -0.0822
     18 C         142.0289  137.8082  164.9274 C.ar    1  UNL1        0.0228
     19 C         141.6983  137.9862  163.4752 C.ar    1  UNL1        0.0599
     20 CL        140.4599  137.3602  162.9057 Cl      1  UNL1       -0.0822
     21 C         140.7919  141.0181  161.7291 C.ar    1  UNL1        0.0015
     22 C         141.5710  142.2227  162.1669 C.ar    1  UNL1        0.0009
     23 C         140.9944  143.1586  163.1876 C.ar    1  UNL1        0.0114
     24 C         139.6387  142.8899  163.7704 C.ar    1  UNL1        0.0577
     25 CL        139.0622  143.8258  164.7910 Cl      1  UNL1       -0.0822
     26 C         138.8595  141.6852  163.3326 C.ar    1  UNL1        0.0114
     27 C         139.4361  140.7493  162.3120 C.ar    1  UNL1        0.0009
     28 C         138.9186  140.3495  156.1219 C.2     1  UNL1        0.2838
     29 O         138.3677  138.9690  156.3236 O.2     1  UNL1       -0.2667
     30 N         140.3767  140.6161  156.3518 N.am    1  UNL1       -0.2959
     31 H         140.7383  141.5222  156.2194 H       1  UNL1        0.1501
     32 C         136.3126  143.8277  153.1233 C.3     1  UNL1        0.0731
     33 C         136.8136  143.0622  154.3119 C.ar    1  UNL1        0.1349
     34 N         137.7988  141.9315  154.2811 N.ar    1  UNL1       -0.2070
     35 C         138.0114  141.4634  155.6902 C.ar    1  UNL1        0.2363
     36 N         137.1576  142.3047  156.5920 N.ar    1  UNL1       -0.1474
     37 N         136.4173  143.2928  155.7402 N.ar    1  UNL1       -0.2615
     38 H         135.7827  143.9732  156.0620 H       1  UNL1        0.1903
@<TRIPOS>BOND
     1    32    33    1
     2    33    34   ar
     3    34    35   ar
     4    35    28    1
     5    28    29    2
     6    28    30   am
     7     1    30    1
     8     1     2    1
     9     2     3    1
    10     3     4    1
    11     3     5    1
    12     3     6    1
    13     6     7    1
    14     7     8   ar
    15     8     9   ar
    16     9    13    1
    17    13    14   ar
    18    14    15   ar
    19    15    16   ar
    20    16    17    1
    21    16    18   ar
    22    18    19   ar
    23    19    20    1
    24     9    10   ar
    25    10    21    1
    26    21    22   ar
    27    22    23   ar
    28    23    24   ar
    29    24    25    1
    30    24    26   ar
    31    26    27   ar
    32    10    11   ar
    33    11    12   ar
    34    35    36   ar
    35    36    37   ar
    36    37    33   ar
    37    12     1    1
    38    12     7   ar
    39    19    13   ar
    40    27    21   ar
    41    30    31    1
    42    37    38    1
@<TRIPOS>MOLECULE
*****
 38 42 0 0 0
SMALL
GASTEIGER

@<TRIPOS>ATOM
      1 C         140.6333  143.5336  156.3879 C.3     1  UNL1        0.1024
      2 C         140.9893  142.8999  155.0757 C.3     1  UNL1        0.0643
      3 C         141.1628  141.4128  154.9837 C.3     1  UNL1        0.1368
      4 C         141.4321  140.0588  154.3972 C.3     1  UNL1        0.0437
      5 C         141.4388  141.7959  153.5599 C.3     1  UNL1        0.0437
      6 O         140.9803  140.5595  156.2037 O.3     1  UNL1       -0.4676
      7 C         140.6244  141.1932  157.5158 C.ar    1  UNL1        0.2219
      8 N         140.4419  140.3399  158.7359 N.ar    1  UNL1       -0.2119
      9 C         140.0860  140.9736  160.0480 C.ar    1  UNL1        0.0851
     10 C         139.9125  142.4607  160.1401 C.ar    1  UNL1        0.0177
     11 C         140.0949  143.3140  158.9201 C.ar    1  UNL1        0.0034
     12 C         140.4509  142.6803  157.6079 C.ar    1  UNL1        0.0488
     13 C         139.9035  140.1202  161.2680 C.ar    1  UNL1        0.0284
     14 C         141.0642  139.8606  162.1821 C.ar    1  UNL1        0.0032
     15 C         140.8817  139.0072  163.4021 C.ar    1  UNL1        0.0115
     16 C         139.5386  138.4135  163.7081 C.ar    1  UNL1        0.0585
     17 CL        139.3561  137.5602  164.9282 Cl      1  UNL1       -0.0822
     18 C         138.3780  138.6732  162.7941 C.ar    1  UNL1        0.0228
     19 C         138.5604  139.5266  161.5740 C.ar    1  UNL1        0.0599
     20 CL        137.3998  139.7862  160.6600 Cl      1  UNL1       -0.0822
     21 C         139.5565  143.0944  161.4522 C.ar    1  UNL1        0.0015
     22 C         140.6350  143.6537  162.3321 C.ar    1  UNL1        0.0009
     23 C         140.2790  144.2874  163.6442 C.ar    1  UNL1        0.0114
     24 C         138.8445  144.3619  164.0765 C.ar    1  UNL1        0.0577
     25 CL        138.4886  144.9956  165.3886 Cl      1  UNL1       -0.0822
     26 C         137.7661  143.8026  163.1966 C.ar    1  UNL1        0.0114
     27 C         138.1220  143.1689  161.8845 C.ar    1  UNL1        0.0009
     28 C         139.2372  145.6703  155.9028 C.2     1  UNL1        0.2838
     29 O         138.1880  144.8328  155.2336 O.2     1  UNL1       -0.2667
     30 N         140.4598  145.0207  156.4800 N.am    1  UNL1       -0.2959
     31 H         141.1485  145.5704  156.9192 H       1  UNL1        0.1501
     32 C         138.9803  150.7853  154.6178 C.3     1  UNL1        0.0731
     33 C         138.9456  149.5085  155.4042 C.ar    1  UNL1        0.1349
     34 N         139.2027  148.1330  154.8640 N.ar    1  UNL1       -0.2070
     35 C         139.0636  147.1574  155.9949 C.ar    1  UNL1        0.2363
     36 N         138.7206  147.9299  157.2340 N.ar    1  UNL1       -0.1474
     37 N         138.6476  149.3830  156.8690 N.ar    1  UNL1       -0.2615
     38 H         138.4405  150.1242  157.4830 H       1  UNL1        0.1903
@<TRIPOS>BOND
     1    32    33    1
     2    33    34   ar
     3    34    35   ar
     4    35    28    1
     5    28    29    2
     6    28    30   am
     7     1    30    1
     8     1     2    1
     9     2     3    1
    10     3     4    1
    11     3     5    1
    12     3     6    1
    13     6     7    1
    14     7     8   ar
    15     8     9   ar
    16     9    13    1
    17    13    14   ar
    18    14    15   ar
    19    15    16   ar
    20    16    17    1
    21    16    18   ar
    22    18    19   ar
    23    19    20    1
    24     9    10   ar
    25    10    21    1
    26    21    22   ar
    27    22    23   ar
    28    23    24   ar
    29    24    25    1
    30    24    26   ar
    31    26    27   ar
    32    10    11   ar
    33    11    12   ar
    34    35    36   ar
    35    36    37   ar
    36    37    33   ar
    37    12     1    1
    38    12     7   ar
    39    19    13   ar
    40    27    21   ar
    41    30    31    1
    42    37    38    1
