@<TRIPOS>MOLECULE
*****
 20 21 0 0 0
SMALL
GASTEIGER

@<TRIPOS>ATOM
      1 O         138.1147  143.4804  161.7737 O.2     1  UNL1       -0.2730
      2 C         138.0834  142.6815  163.0428 C.2     1  UNL1        0.2460
      3 N         138.9233  143.0997  164.2132 N.am    1  UNL1       -0.2988
      4 H         138.9028  142.5754  165.0462 H       1  UNL1        0.1498
      5 C         137.2122  141.4645  163.1417 C.3     1  UNL1        0.1983
      6 N         137.8162  140.0975  163.0137 N.ar    1  UNL1       -0.2422
      7 C         138.0109  139.3356  161.7364 C.ar    1  UNL1        0.1039
      8 C         138.6465  138.0195  162.0739 C.ar    1  UNL1        0.1255
      9 N         138.8446  137.9681  163.5599 N.ar    1  UNL1       -0.1607
     10 C         138.3314  139.2523  164.1407 C.ar    1  UNL1        0.4525
     11 N         138.3332  139.6257  165.5935 N.pl3   1  UNL1        0.1196
     12 O         137.5252  138.8282  166.5738 O.2     1  UNL1        0.0446
     13 O         139.1431  140.7966  166.0660 O.co2   1  UNL1       -0.5735
     14 C         139.7945  144.3168  164.1144 C.3     1  UNL1        0.1164
     15 C         141.2747  144.1989  164.3271 C.ar    1  UNL1       -0.0026
     16 C         141.8311  143.0420  165.1030 C.ar    1  UNL1       -0.0026
     17 C         143.3113  142.9242  165.3157 C.ar    1  UNL1       -0.0003
     18 C         144.2350  143.9632  164.7524 C.ar    1  UNL1       -0.0000
     19 C         143.6786  145.1200  163.9766 C.ar    1  UNL1       -0.0003
     20 C         142.1984  145.2379  163.7639 C.ar    1  UNL1       -0.0026
@<TRIPOS>UNITY_ATOM_ATTR
11 1
charge 1
13 1
charge -1
@<TRIPOS>BOND
     1     1     2    2
     2     2     5    1
     3     5     6    1
     4     6     7   ar
     5     7     8   ar
     6     8     9   ar
     7     9    10   ar
     8    10    11    1
     9    11    12    2
    10    11    13    1
    11     2     3   am
    12     3    14    1
    13    14    15    1
    14    15    16   ar
    15    16    17   ar
    16    17    18   ar
    17    18    19   ar
    18    19    20   ar
    19    10     6   ar
    20    20    15   ar
    21     3     4    1
@<TRIPOS>MOLECULE
*****
 20 21 0 0 0
SMALL
GASTEIGER

@<TRIPOS>ATOM
      1 O         139.1924  139.6545  165.9814 O.2     1  UNL1       -0.2730
      2 C         139.6546  140.5748  167.0720 C.2     1  UNL1        0.2460
      3 N         140.1984  141.9301  166.7293 N.am    1  UNL1       -0.2988
      4 H         140.5018  142.5342  167.4451 H       1  UNL1        0.1498
      5 C         139.5732  140.1397  168.5052 C.3     1  UNL1        0.1983
      6 N         140.7264  140.3892  169.4313 N.ar    1  UNL1       -0.2422
      7 C         141.8505  139.4376  169.7158 C.ar    1  UNL1        0.1039
      8 C         142.7769  140.0943  170.6959 C.ar    1  UNL1        0.1255
      9 N         142.2252  141.4517  171.0172 N.ar    1  UNL1       -0.1607
     10 C         140.9580  141.6339  170.2356 C.ar    1  UNL1        0.4525
     11 N         140.0770  142.8478  170.2549 N.pl3   1  UNL1        0.1196
     12 O         140.0875  143.8006  169.0965 O.2     1  UNL1        0.0446
     13 O         139.1855  143.1090  171.4327 O.co2   1  UNL1       -0.5735
     14 C         140.2798  142.3652  165.2961 C.3     1  UNL1        0.1164
     15 C         141.3973  143.2589  164.8459 C.ar    1  UNL1       -0.0026
     16 C         142.8203  142.8865  165.1397 C.ar    1  UNL1       -0.0026
     17 C         143.9376  143.7803  164.6895 C.ar    1  UNL1       -0.0003
     18 C         143.6320  145.0464  163.9456 C.ar    1  UNL1       -0.0000
     19 C         142.2090  145.4188  163.6518 C.ar    1  UNL1       -0.0003
     20 C         141.0916  144.5251  164.1020 C.ar    1  UNL1       -0.0026
@<TRIPOS>UNITY_ATOM_ATTR
11 1
charge 1
13 1
charge -1
@<TRIPOS>BOND
     1     1     2    2
     2     2     5    1
     3     5     6    1
     4     6     7   ar
     5     7     8   ar
     6     8     9   ar
     7     9    10   ar
     8    10    11    1
     9    11    12    2
    10    11    13    1
    11     2     3   am
    12     3    14    1
    13    14    15    1
    14    15    16   ar
    15    16    17   ar
    16    17    18   ar
    17    18    19   ar
    18    19    20   ar
    19    10     6   ar
    20    20    15   ar
    21     3     4    1
@<TRIPOS>MOLECULE
*****
 20 21 0 0 0
SMALL
GASTEIGER

@<TRIPOS>ATOM
      1 O         137.8856  144.7394  162.3977 O.2     1  UNL1       -0.2730
      2 C         139.1979  145.3657  162.7660 C.2     1  UNL1        0.2460
      3 N         139.7088  145.2644  164.1727 N.am    1  UNL1       -0.2988
      4 H         140.5701  145.6755  164.4144 H       1  UNL1        0.1498
      5 C         139.9993  146.0933  161.7276 C.3     1  UNL1        0.1983
      6 N         140.7876  145.3212  160.7116 N.ar    1  UNL1       -0.2422
      7 C         140.4932  145.2404  159.2429 C.ar    1  UNL1        0.1039
      8 C         141.5323  144.3636  158.6094 C.ar    1  UNL1        0.1255
      9 N         142.4689  143.9024  159.6866 N.ar    1  UNL1       -0.1607
     10 C         142.0086  144.4943  160.9857 C.ar    1  UNL1        0.4525
     11 N         142.6558  144.2943  162.3241 N.pl3   1  UNL1        0.1196
     12 O         143.9570  144.9720  162.6367 O.2     1  UNL1        0.0446
     13 O         142.0019  143.4167  163.3499 O.co2   1  UNL1       -0.5735
     14 C         138.9074  144.5367  165.2111 C.3     1  UNL1        0.1164
     15 C         139.0576  143.0528  165.3706 C.ar    1  UNL1       -0.0026
     16 C         138.1298  142.1229  164.6463 C.ar    1  UNL1       -0.0026
     17 C         138.2801  140.6390  164.8058 C.ar    1  UNL1       -0.0003
     18 C         139.3580  140.0850  165.6895 C.ar    1  UNL1       -0.0000
     19 C         140.2858  141.0148  166.4138 C.ar    1  UNL1       -0.0003
     20 C         140.1356  142.4987  166.2543 C.ar    1  UNL1       -0.0026
@<TRIPOS>UNITY_ATOM_ATTR
11 1
charge 1
13 1
charge -1
@<TRIPOS>BOND
     1     1     2    2
     2     2     5    1
     3     5     6    1
     4     6     7   ar
     5     7     8   ar
     6     8     9   ar
     7     9    10   ar
     8    10    11    1
     9    11    12    2
    10    11    13    1
    11     2     3   am
    12     3    14    1
    13    14    15    1
    14    15    16   ar
    15    16    17   ar
    16    17    18   ar
    17    18    19   ar
    18    19    20   ar
    19    10     6   ar
    20    20    15   ar
    21     3     4    1
@<TRIPOS>MOLECULE
*****
 20 21 0 0 0
SMALL
GASTEIGER

@<TRIPOS>ATOM
      1 O         140.0896  141.4258  166.8594 O.2     1  UNL1       -0.2730
      2 C         139.7352  140.3610  167.8547 C.2     1  UNL1        0.2460
      3 N         138.7877  139.2627  167.4726 N.am    1  UNL1       -0.2988
      4 H         138.5550  138.5638  168.1258 H       1  UNL1        0.1498
      5 C         140.3282  140.3946  169.2320 C.3     1  UNL1        0.1983
      6 N         141.5093  141.2736  169.5188 N.ar    1  UNL1       -0.2422
      7 C         142.9500  140.9088  169.3153 C.ar    1  UNL1        0.1039
      8 C         143.7882  142.0815  169.7301 C.ar    1  UNL1        0.1255
      9 N         142.8655  143.1711  170.1901 N.ar    1  UNL1       -0.1607
     10 C         141.4571  142.6718  170.0594 C.ar    1  UNL1        0.4525
     11 N         140.2147  143.4364  170.4082 N.pl3   1  UNL1        0.1196
     12 O         139.3064  142.9372  171.4926 O.2     1  UNL1        0.0446
     13 O         139.8805  144.7003  169.6727 O.co2   1  UNL1       -0.5735
     14 C         138.1946  139.2291  166.0952 C.3     1  UNL1        0.1164
     15 C         138.9873  138.6707  164.9507 C.ar    1  UNL1       -0.0026
     16 C         140.2104  137.8445  165.2179 C.ar    1  UNL1       -0.0026
     17 C         141.0030  137.2861  164.0734 C.ar    1  UNL1       -0.0003
     18 C         140.5726  137.5540  162.6617 C.ar    1  UNL1       -0.0000
     19 C         139.3496  138.3802  162.3945 C.ar    1  UNL1       -0.0003
     20 C         138.5569  138.9386  163.5389 C.ar    1  UNL1       -0.0026
@<TRIPOS>UNITY_ATOM_ATTR
11 1
charge 1
13 1
charge -1
@<TRIPOS>BOND
     1     1     2    2
     2     2     5    1
     3     5     6    1
     4     6     7   ar
     5     7     8   ar
     6     8     9   ar
     7     9    10   ar
     8    10    11    1
     9    11    12    2
    10    11    13    1
    11     2     3   am
    12     3    14    1
    13    14    15    1
    14    15    16   ar
    15    16    17   ar
    16    17    18   ar
    17    18    19   ar
    18    19    20   ar
    19    10     6   ar
    20    20    15   ar
    21     3     4    1
@<TRIPOS>MOLECULE
*****
 20 21 0 0 0
SMALL
GASTEIGER

@<TRIPOS>ATOM
      1 O         138.4300  143.5038  164.7710 O.2     1  UNL1       -0.2730
      2 C         138.7795  142.0586  164.9688 C.2     1  UNL1        0.2460
      3 N         140.0492  141.6838  165.6742 N.am    1  UNL1       -0.2988
      4 H         140.2786  140.7353  165.8040 H       1  UNL1        0.1498
      5 C         137.8595  140.9882  164.4612 C.3     1  UNL1        0.1983
      6 N         138.3638  139.5863  164.2871 N.ar    1  UNL1       -0.2422
      7 C         138.8124  138.9644  162.9979 C.ar    1  UNL1        0.1039
      8 C         139.2340  137.5539  163.2857 C.ar    1  UNL1        0.1255
      9 N         139.0460  137.3042  164.7528 N.ar    1  UNL1       -0.1607
     10 C         138.5083  138.5603  165.3717 C.ar    1  UNL1        0.4525
     11 N         138.1737  138.7559  166.8207 N.pl3   1  UNL1        0.1196
     12 O         139.0020  139.6797  167.6636 O.2     1  UNL1        0.0446
     13 O         137.0108  138.0277  167.4270 O.co2   1  UNL1       -0.5735
     14 C         140.9692  142.7542  166.1818 C.3     1  UNL1        0.1164
     15 C         141.4768  142.7001  167.5924 C.ar    1  UNL1       -0.0026
     16 C         142.8883  142.2726  167.8656 C.ar    1  UNL1       -0.0026
     17 C         143.3958  142.2185  169.2761 C.ar    1  UNL1       -0.0003
     18 C         142.4917  142.5919  170.4133 C.ar    1  UNL1       -0.0000
     19 C         141.0801  143.0193  170.1401 C.ar    1  UNL1       -0.0003
     20 C         140.5727  143.0734  168.7296 C.ar    1  UNL1       -0.0026
@<TRIPOS>UNITY_ATOM_ATTR
11 1
charge 1
13 1
charge -1
@<TRIPOS>BOND
     1     1     2    2
     2     2     5    1
     3     5     6    1
     4     6     7   ar
     5     7     8   ar
     6     8     9   ar
     7     9    10   ar
     8    10    11    1
     9    11    12    2
    10    11    13    1
    11     2     3   am
    12     3    14    1
    13    14    15    1
    14    15    16   ar
    15    16    17   ar
    16    17    18   ar
    17    18    19   ar
    18    19    20   ar
    19    10     6   ar
    20    20    15   ar
    21     3     4    1
@<TRIPOS>MOLECULE
*****
 20 21 0 0 0
SMALL
GASTEIGER

@<TRIPOS>ATOM
      1 O         139.0451  137.6664  165.1320 O.2     1  UNL1       -0.2730
      2 C         140.3939  138.3205  165.0792 C.2     1  UNL1        0.2460
      3 N         140.6157  139.6379  165.7615 N.am    1  UNL1       -0.2988
      4 H         141.5010  140.0672  165.7269 H       1  UNL1        0.1498
      5 C         141.5208  137.6574  164.3442 C.3     1  UNL1        0.1983
      6 N         142.8101  138.3926  164.1272 N.ar    1  UNL1       -0.2422
      7 C         143.2846  138.9764  162.8295 C.ar    1  UNL1        0.1039
      8 C         144.6190  139.6177  163.0700 C.ar    1  UNL1        0.1255
      9 N         144.9693  139.4303  164.5165 N.ar    1  UNL1       -0.1607
     10 C         143.8513  138.6732  165.1699 C.ar    1  UNL1        0.4525
     11 N         143.7861  138.2678  166.6125 N.pl3   1  UNL1        0.1196
     12 O         142.9022  139.0191  167.5634 O.2     1  UNL1        0.0446
     13 O         144.6047  137.1111  167.1044 O.co2   1  UNL1       -0.5735
     14 C         139.4888  140.3010  166.4965 C.3     1  UNL1        0.1164
     15 C         139.7577  141.0365  167.7759 C.ar    1  UNL1       -0.0026
     16 C         139.4704  140.3794  169.0934 C.ar    1  UNL1       -0.0026
     17 C         139.7394  141.1149  170.3727 C.ar    1  UNL1       -0.0003
     18 C         140.2956  142.5074  170.3346 C.ar    1  UNL1       -0.0000
     19 C         140.5828  143.1645  169.0172 C.ar    1  UNL1       -0.0003
     20 C         140.3139  142.4290  167.7378 C.ar    1  UNL1       -0.0026
@<TRIPOS>UNITY_ATOM_ATTR
11 1
charge 1
13 1
charge -1
@<TRIPOS>BOND
     1     1     2    2
     2     2     5    1
     3     5     6    1
     4     6     7   ar
     5     7     8   ar
     6     8     9   ar
     7     9    10   ar
     8    10    11    1
     9    11    12    2
    10    11    13    1
    11     2     3   am
    12     3    14    1
    13    14    15    1
    14    15    16   ar
    15    16    17   ar
    16    17    18   ar
    17    18    19   ar
    18    19    20   ar
    19    10     6   ar
    20    20    15   ar
    21     3     4    1
@<TRIPOS>MOLECULE
*****
 20 21 0 0 0
SMALL
GASTEIGER

@<TRIPOS>ATOM
      1 O         138.2404  143.2561  160.8949 O.2     1  UNL1       -0.2730
      2 C         138.6858  143.6559  162.2703 C.2     1  UNL1        0.2460
      3 N         138.3314  142.8016  163.4513 N.am    1  UNL1       -0.2988
      4 H         138.6238  143.0639  164.3540 H       1  UNL1        0.1498
      5 C         139.4856  144.9099  162.4648 C.3     1  UNL1        0.1983
      6 N         140.9707  144.8296  162.6591 N.ar    1  UNL1       -0.2422
      7 C         141.7001  144.9962  163.9593 C.ar    1  UNL1        0.1039
      8 C         143.1675  144.8382  163.6912 C.ar    1  UNL1        0.1255
      9 N         143.3450  144.5740  162.2253 N.ar    1  UNL1       -0.1607
     10 C         141.9873  144.5687  161.5875 C.ar    1  UNL1        0.4525
     11 N         141.6972  144.3422  160.1334 N.pl3   1  UNL1        0.1196
     12 O         141.3332  142.9712  159.6459 O.2     1  UNL1        0.0446
     13 O         141.7712  145.4868  159.1666 O.co2   1  UNL1       -0.5735
     14 C         137.5317  141.5476  163.2568 C.3     1  UNL1        0.1164
     15 C         138.0293  140.2467  163.8138 C.ar    1  UNL1       -0.0026
     16 C         138.1832  140.0753  165.2960 C.ar    1  UNL1       -0.0026
     17 C         138.6807  138.7745  165.8529 C.ar    1  UNL1       -0.0003
     18 C         139.0244  137.6450  164.9276 C.ar    1  UNL1       -0.0000
     19 C         138.8706  137.8164  163.4454 C.ar    1  UNL1       -0.0003
     20 C         138.3730  139.1172  162.8885 C.ar    1  UNL1       -0.0026
@<TRIPOS>UNITY_ATOM_ATTR
11 1
charge 1
13 1
charge -1
@<TRIPOS>BOND
     1     1     2    2
     2     2     5    1
     3     5     6    1
     4     6     7   ar
     5     7     8   ar
     6     8     9   ar
     7     9    10   ar
     8    10    11    1
     9    11    12    2
    10    11    13    1
    11     2     3   am
    12     3    14    1
    13    14    15    1
    14    15    16   ar
    15    16    17   ar
    16    17    18   ar
    17    18    19   ar
    18    19    20   ar
    19    10     6   ar
    20    20    15   ar
    21     3     4    1
@<TRIPOS>MOLECULE
*****
 20 21 0 0 0
SMALL
GASTEIGER

@<TRIPOS>ATOM
      1 O         137.5239  144.2739  164.9275 O.2     1  UNL1       -0.2730
      2 C         138.7900  143.9623  164.1860 C.2     1  UNL1        0.2460
      3 N         138.9720  142.6188  163.5442 N.am    1  UNL1       -0.2988
      4 H         139.8030  142.4143  163.0575 H       1  UNL1        0.1498
      5 C         139.8740  144.9943  164.0861 C.3     1  UNL1        0.1983
      6 N         141.0767  144.7379  163.2272 N.ar    1  UNL1       -0.2422
      7 C         142.4287  144.3034  163.7103 C.ar    1  UNL1        0.1039
      8 C         143.3262  144.1679  162.5161 C.ar    1  UNL1        0.1255
      9 N         142.5288  144.5187  161.2949 N.ar    1  UNL1       -0.1607
     10 C         141.1386  144.8709  161.7344 C.ar    1  UNL1        0.4525
     11 N         140.0086  145.2837  160.8384 N.pl3   1  UNL1        0.1196
     12 O         139.2362  146.5352  161.1336 O.2     1  UNL1        0.0446
     13 O         139.6511  144.4451  159.6473 O.co2   1  UNL1       -0.5735
     14 C         137.8880  141.5868  163.6441 C.3     1  UNL1        0.1164
     15 C         138.2047  140.2137  164.1583 C.ar    1  UNL1       -0.0026
     16 C         138.6433  139.1396  163.2076 C.ar    1  UNL1       -0.0026
     17 C         138.9600  137.7665  163.7218 C.ar    1  UNL1       -0.0003
     18 C         138.8381  137.4676  165.1866 C.ar    1  UNL1       -0.0000
     19 C         138.3994  138.5417  166.1373 C.ar    1  UNL1       -0.0003
     20 C         138.0828  139.9148  165.6231 C.ar    1  UNL1       -0.0026
@<TRIPOS>UNITY_ATOM_ATTR
11 1
charge 1
13 1
charge -1
@<TRIPOS>BOND
     1     1     2    2
     2     2     5    1
     3     5     6    1
     4     6     7   ar
     5     7     8   ar
     6     8     9   ar
     7     9    10   ar
     8    10    11    1
     9    11    12    2
    10    11    13    1
    11     2     3   am
    12     3    14    1
    13    14    15    1
    14    15    16   ar
    15    16    17   ar
    16    17    18   ar
    17    18    19   ar
    18    19    20   ar
    19    10     6   ar
    20    20    15   ar
    21     3     4    1
@<TRIPOS>MOLECULE
*****
 20 21 0 0 0
SMALL
GASTEIGER

@<TRIPOS>ATOM
      1 O         137.9176  138.7255  167.9752 O.2     1  UNL1       -0.2730
      2 C         139.0066  139.7443  167.8136 C.2     1  UNL1        0.2460
      3 N         139.1973  140.4356  166.4961 N.am    1  UNL1       -0.2988
      4 H         139.9121  141.1043  166.3900 H       1  UNL1        0.1498
      5 C         139.9047  140.0720  168.9694 C.3     1  UNL1        0.1983
      6 N         141.0762  140.9878  168.7728 N.ar    1  UNL1       -0.2422
      7 C         142.1607  140.8248  167.7494 C.ar    1  UNL1        0.1039
      8 C         143.1237  141.9638  167.9091 C.ar    1  UNL1        0.1255
      9 N         142.6343  142.8307  169.0312 N.ar    1  UNL1       -0.1607
     10 C         141.3688  142.2275  169.5649 C.ar    1  UNL1        0.4525
     11 N         140.5414  142.7690  170.6928 N.pl3   1  UNL1        0.1196
     12 O         140.4953  142.0433  172.0047 O.2     1  UNL1        0.0446
     13 O         139.7601  144.0361  170.5088 O.co2   1  UNL1       -0.5735
     14 C         138.2992  140.1079  165.3402 C.3     1  UNL1        0.1164
     15 C         138.1736  141.0661  164.1929 C.ar    1  UNL1       -0.0026
     16 C         137.8915  142.5159  164.4540 C.ar    1  UNL1       -0.0026
     17 C         137.7659  143.4740  163.3066 C.ar    1  UNL1       -0.0003
     18 C         137.9225  142.9821  161.8983 C.ar    1  UNL1       -0.0000
     19 C         138.2046  141.5322  161.6372 C.ar    1  UNL1       -0.0003
     20 C         138.3302  140.5742  162.7845 C.ar    1  UNL1       -0.0026
@<TRIPOS>UNITY_ATOM_ATTR
11 1
charge 1
13 1
charge -1
@<TRIPOS>BOND
     1     1     2    2
     2     2     5    1
     3     5     6    1
     4     6     7   ar
     5     7     8   ar
     6     8     9   ar
     7     9    10   ar
     8    10    11    1
     9    11    12    2
    10    11    13    1
    11     2     3   am
    12     3    14    1
    13    14    15    1
    14    15    16   ar
    15    16    17   ar
    16    17    18   ar
    17    18    19   ar
    18    19    20   ar
    19    10     6   ar
    20    20    15   ar
    21     3     4    1
