@<TRIPOS>MOLECULE
*****
 26 28 0 0 0
SMALL
GASTEIGER

@<TRIPOS>ATOM
      1 C         140.8046  144.6708  163.3989 C.3     1  UNL1        0.0716
      2 C         141.8578  143.7034  163.8515 C.3     1  UNL1        0.0199
      3 C         141.6510  142.9001  165.1013 C.3     1  UNL1        0.0060
      4 C         140.3910  143.0642  165.8984 C.3     1  UNL1        0.0224
      5 C         139.3378  144.0316  165.4458 C.3     1  UNL1        0.0060
      6 C         139.5446  144.8349  164.1960 C.3     1  UNL1        0.0199
      7 C         140.1842  142.2609  167.1482 C.ar    1  UNL1       -0.0223
      8 C         139.7475  140.8289  167.0557 C.ar    1  UNL1       -0.0012
      9 C         139.5407  140.0256  168.3055 C.ar    1  UNL1        0.0363
     10 C         139.7706  140.6543  169.6478 C.ar    1  UNL1        0.1337
     11 O         139.5639  139.8511  170.8976 O.3     1  UNL1       -0.5055
     12 C         140.2074  142.0864  169.7403 C.ar    1  UNL1        0.0363
     13 C         140.4141  142.8896  168.4905 C.ar    1  UNL1       -0.0012
     14 H         139.2911  138.9565  170.8398 H       1  UNL1        0.2922
     15 C         140.2293  145.1497  160.9110 C.2     1  UNL1        0.2228
     16 O         139.2403  144.0219  160.9226 O.2     1  UNL1       -0.2751
     17 N         141.0114  145.4741  162.1491 N.am    1  UNL1       -0.3060
     18 H         141.6605  146.2143  162.1414 H       1  UNL1        0.1494
     19 C         140.4361  145.9530  159.6612 C.3     1  UNL1        0.0919
     20 C         140.3923  145.2802  158.3213 C.3     1  UNL1        0.0621
     21 C         140.7910  147.1539  153.4009 C.3     1  UNL1        0.0398
     22 C         140.3469  146.9538  154.8196 C.ar    1  UNL1        0.0278
     23 C         139.2765  147.7315  155.5264 C.ar    1  UNL1        0.1012
     24 N         139.1633  147.1992  156.9242 N.ar    1  UNL1       -0.2415
     25 C         140.1636  146.0925  157.0813 C.ar    1  UNL1        0.0884
     26 S         140.8951  145.9409  155.7806 S.2     1  UNL1       -0.0751
@<TRIPOS>BOND
     1    21    22    1
     2    22    23   ar
     3    23    24   ar
     4    24    25   ar
     5    25    20    1
     6    20    19    1
     7    19    15    1
     8    15    16    2
     9    15    17   am
    10     1    17    1
    11     1     2    1
    12     2     3    1
    13     3     4    1
    14     4     7    1
    15     7     8   ar
    16     8     9   ar
    17     9    10   ar
    18    10    11    1
    19    10    12   ar
    20    12    13   ar
    21     4     5    1
    22     5     6    1
    23    25    26   ar
    24    26    22   ar
    25     6     1    1
    26    13     7   ar
    27    17    18    1
    28    11    14    1
@<TRIPOS>MOLECULE
*****
 26 28 0 0 0
SMALL
GASTEIGER

@<TRIPOS>ATOM
      1 C         142.4146  140.3258  167.3802 C.3     1  UNL1        0.0716
      2 C         142.9584  141.7237  167.3668 C.3     1  UNL1        0.0199
      3 C         142.4236  142.7271  166.3885 C.3     1  UNL1        0.0060
      4 C         141.3449  142.3327  165.4237 C.3     1  UNL1        0.0224
      5 C         140.8011  140.9348  165.4371 C.3     1  UNL1        0.0060
      6 C         141.3359  139.9314  166.4154 C.3     1  UNL1        0.0199
      7 C         140.8101  143.3362  164.4454 C.ar    1  UNL1       -0.0223
      8 C         139.3524  143.6897  164.4550 C.ar    1  UNL1       -0.0012
      9 C         138.8175  144.6932  163.4766 C.ar    1  UNL1        0.0363
     10 C         139.7405  145.3431  162.4888 C.ar    1  UNL1        0.1337
     11 O         139.2057  146.3466  161.5105 O.3     1  UNL1       -0.5055
     12 C         141.1982  144.9895  162.4793 C.ar    1  UNL1        0.0363
     13 C         141.7330  143.9861  163.4575 C.ar    1  UNL1       -0.0012
     14 H         138.2951  146.5674  161.5165 H       1  UNL1        0.2922
     15 C         142.2621  139.1196  169.6763 C.2     1  UNL1        0.2228
     16 O         141.0400  139.9203  170.0158 O.2     1  UNL1       -0.2751
     17 N         142.9494  139.3223  168.3585 N.am    1  UNL1       -0.3060
     18 H         143.7516  138.7968  168.1357 H       1  UNL1        0.1494
     19 C         142.7970  138.1161  170.6546 C.3     1  UNL1        0.0919
     20 C         143.8015  137.0954  170.2084 C.3     1  UNL1        0.0621
     21 C         147.1608  135.9437  174.1159 C.3     1  UNL1        0.0398
     22 C         146.1447  135.8059  173.0212 C.ar    1  UNL1        0.0278
     23 C         145.5158  134.5252  172.5581 C.ar    1  UNL1        0.1012
     24 N         144.5615  134.8524  171.4480 N.ar    1  UNL1       -0.2415
     25 C         144.6005  136.3353  171.2251 C.ar    1  UNL1        0.0884
     26 S         145.5790  136.9245  172.1973 S.2     1  UNL1       -0.0751
@<TRIPOS>BOND
     1    21    22    1
     2    22    23   ar
     3    23    24   ar
     4    24    25   ar
     5    25    20    1
     6    20    19    1
     7    19    15    1
     8    15    16    2
     9    15    17   am
    10     1    17    1
    11     1     2    1
    12     2     3    1
    13     3     4    1
    14     4     7    1
    15     7     8   ar
    16     8     9   ar
    17     9    10   ar
    18    10    11    1
    19    10    12   ar
    20    12    13   ar
    21     4     5    1
    22     5     6    1
    23    25    26   ar
    24    26    22   ar
    25     6     1    1
    26    13     7   ar
    27    17    18    1
    28    11    14    1
@<TRIPOS>MOLECULE
*****
 26 28 0 0 0
SMALL
GASTEIGER

@<TRIPOS>ATOM
      1 C         139.3166  139.3949  163.6525 C.3     1  UNL1        0.0716
      2 C         140.6128  140.1017  163.9174 C.3     1  UNL1        0.0199
      3 C         141.0708  140.3244  165.3283 C.3     1  UNL1        0.0060
      4 C         140.2327  139.8403  166.4742 C.3     1  UNL1        0.0224
      5 C         138.9365  139.1334  166.2092 C.3     1  UNL1        0.0060
      6 C         138.4785  138.9107  164.7984 C.3     1  UNL1        0.0199
      7 C         140.6908  140.0630  167.8851 C.ar    1  UNL1       -0.0223
      8 C         139.6841  140.2938  168.9729 C.ar    1  UNL1       -0.0012
      9 C         140.1422  140.5165  170.3838 C.ar    1  UNL1        0.0363
     10 C         141.6070  140.5085  170.7068 C.ar    1  UNL1        0.1337
     11 O         142.0651  140.7312  172.1177 O.3     1  UNL1       -0.5055
     12 C         142.6137  140.2777  169.6190 C.ar    1  UNL1        0.0363
     13 C         142.1555  140.0550  168.2081 C.ar    1  UNL1       -0.0012
     14 H         141.4363  140.8753  172.7972 H       1  UNL1        0.2922
     15 C         137.8600  140.1039  161.6213 C.2     1  UNL1        0.2228
     16 O         137.3195  141.2584  162.4118 O.2     1  UNL1       -0.2751
     17 N         138.8585  139.1721  162.2415 N.am    1  UNL1       -0.3060
     18 H         139.2132  138.4144  161.7226 H       1  UNL1        0.1494
     19 C         137.4019  139.8811  160.2104 C.3     1  UNL1        0.0919
     20 C         138.2150  140.4089  159.0657 C.3     1  UNL1        0.0621
     21 C         136.8808  143.7682  155.2166 C.3     1  UNL1        0.0398
     22 C         136.9177  142.5632  156.1092 C.ar    1  UNL1        0.0278
     23 C         136.0389  141.3530  155.9935 C.ar    1  UNL1        0.1012
     24 N         136.4179  140.3988  157.0869 N.ar    1  UNL1       -0.2415
     25 C         137.5309  141.0191  157.8784 C.ar    1  UNL1        0.0884
     26 S         137.8398  142.3568  157.2741 S.2     1  UNL1       -0.0751
@<TRIPOS>BOND
     1    21    22    1
     2    22    23   ar
     3    23    24   ar
     4    24    25   ar
     5    25    20    1
     6    20    19    1
     7    19    15    1
     8    15    16    2
     9    15    17   am
    10     1    17    1
    11     1     2    1
    12     2     3    1
    13     3     4    1
    14     4     7    1
    15     7     8   ar
    16     8     9   ar
    17     9    10   ar
    18    10    11    1
    19    10    12   ar
    20    12    13   ar
    21     4     5    1
    22     5     6    1
    23    25    26   ar
    24    26    22   ar
    25     6     1    1
    26    13     7   ar
    27    17    18    1
    28    11    14    1
@<TRIPOS>MOLECULE
*****
 26 28 0 0 0
SMALL
GASTEIGER

@<TRIPOS>ATOM
      1 C         140.8390  144.5584  163.5874 C.3     1  UNL1        0.0716
      2 C         141.8737  143.5519  163.9952 C.3     1  UNL1        0.0199
      3 C         141.6930  142.7593  165.2558 C.3     1  UNL1        0.0060
      4 C         140.4776  142.9733  166.1086 C.3     1  UNL1        0.0224
      5 C         139.4429  143.9797  165.7007 C.3     1  UNL1        0.0060
      6 C         139.6236  144.7723  164.4401 C.3     1  UNL1        0.0199
      7 C         140.2969  142.1806  167.3692 C.ar    1  UNL1       -0.0223
      8 C         139.8696  140.7446  167.2975 C.ar    1  UNL1       -0.0012
      9 C         139.6890  139.9520  168.5581 C.ar    1  UNL1        0.0363
     10 C         139.9356  140.5954  169.8905 C.ar    1  UNL1        0.1337
     11 O         139.7550  139.8029  171.1511 O.3     1  UNL1       -0.5055
     12 C         140.3630  142.0315  169.9622 C.ar    1  UNL1        0.0363
     13 C         140.5436  142.8241  168.7015 C.ar    1  UNL1       -0.0012
     14 H         139.4880  138.9058  171.1063 H       1  UNL1        0.2922
     15 C         140.1732  145.0520  161.1250 C.2     1  UNL1        0.2228
     16 O         139.1461  143.9605  161.1839 O.2     1  UNL1       -0.2751
     17 N         141.0197  145.3510  162.3267 N.am    1  UNL1       -0.3060
     18 H         141.6938  146.0675  162.2881 H       1  UNL1        0.1494
     19 C         140.3539  145.8447  159.8644 C.3     1  UNL1        0.0919
     20 C         140.9691  145.2026  158.6564 C.3     1  UNL1        0.0621
     21 C         144.8642  141.8063  157.5729 C.3     1  UNL1        0.0398
     22 C         143.9099  142.6922  158.3176 C.ar    1  UNL1        0.0278
     23 C         143.8698  142.8928  159.8036 C.ar    1  UNL1        0.1012
     24 N         142.7633  143.8576  160.1114 N.ar    1  UNL1       -0.2415
     25 C         142.1195  144.2533  158.8156 C.ar    1  UNL1        0.0884
     26 S         142.8281  143.5331  157.7070 S.2     1  UNL1       -0.0751
@<TRIPOS>BOND
     1    21    22    1
     2    22    23   ar
     3    23    24   ar
     4    24    25   ar
     5    25    20    1
     6    20    19    1
     7    19    15    1
     8    15    16    2
     9    15    17   am
    10     1    17    1
    11     1     2    1
    12     2     3    1
    13     3     4    1
    14     4     7    1
    15     7     8   ar
    16     8     9   ar
    17     9    10   ar
    18    10    11    1
    19    10    12   ar
    20    12    13   ar
    21     4     5    1
    22     5     6    1
    23    25    26   ar
    24    26    22   ar
    25     6     1    1
    26    13     7   ar
    27    17    18    1
    28    11    14    1
@<TRIPOS>MOLECULE
*****
 26 28 0 0 0
SMALL
GASTEIGER

@<TRIPOS>ATOM
      1 C         141.8417  138.1723  164.1221 C.3     1  UNL1        0.0716
      2 C         142.9813  138.3287  165.0848 C.3     1  UNL1        0.0199
      3 C         142.7560  138.9888  166.4127 C.3     1  UNL1        0.0060
      4 C         141.3911  139.4925  166.7779 C.3     1  UNL1        0.0224
      5 C         140.2516  139.3361  165.8152 C.3     1  UNL1        0.0060
      6 C         140.4769  138.6760  164.4873 C.3     1  UNL1        0.0199
      7 C         141.1659  140.1526  168.1059 C.ar    1  UNL1       -0.0223
      8 C         139.7807  140.2398  168.6748 C.ar    1  UNL1       -0.0012
      9 C         139.5555  140.8999  170.0028 C.ar    1  UNL1        0.0363
     10 C         140.7154  141.4729  170.7619 C.ar    1  UNL1        0.1337
     11 O         140.4902  142.1330  172.0899 O.3     1  UNL1       -0.5055
     12 C         142.1007  141.3857  170.1930 C.ar    1  UNL1        0.0363
     13 C         142.3259  140.7256  168.8650 C.ar    1  UNL1       -0.0012
     14 H         139.6249  142.1874  172.4452 H       1  UNL1        0.2922
     15 C         142.7368  138.2678  161.6849 C.2     1  UNL1        0.2228
     16 O         143.1814  139.6836  161.9036 O.2     1  UNL1       -0.2751
     17 N         142.0670  137.5122  162.7940 N.am    1  UNL1       -0.3060
     18 H         141.7752  136.5829  162.6504 H       1  UNL1        0.1494
     19 C         142.9621  137.6077  160.3568 C.3     1  UNL1        0.0919
     20 C         142.3273  138.1731  159.1210 C.3     1  UNL1        0.0621
     21 C         143.2296  135.2777  154.7986 C.3     1  UNL1        0.0398
     22 C         143.2230  136.4120  155.7801 C.ar    1  UNL1        0.0278
     23 C         143.8738  137.7495  155.5862 C.ar    1  UNL1        0.1012
     24 N         143.6174  138.5720  156.8142 N.ar    1  UNL1       -0.2415
     25 C         142.8083  137.7428  157.7669 C.ar    1  UNL1        0.0884
     26 S         142.5645  136.4079  157.1279 S.2     1  UNL1       -0.0751
@<TRIPOS>BOND
     1    21    22    1
     2    22    23   ar
     3    23    24   ar
     4    24    25   ar
     5    25    20    1
     6    20    19    1
     7    19    15    1
     8    15    16    2
     9    15    17   am
    10     1    17    1
    11     1     2    1
    12     2     3    1
    13     3     4    1
    14     4     7    1
    15     7     8   ar
    16     8     9   ar
    17     9    10   ar
    18    10    11    1
    19    10    12   ar
    20    12    13   ar
    21     4     5    1
    22     5     6    1
    23    25    26   ar
    24    26    22   ar
    25     6     1    1
    26    13     7   ar
    27    17    18    1
    28    11    14    1
@<TRIPOS>MOLECULE
*****
 26 28 0 0 0
SMALL
GASTEIGER

@<TRIPOS>ATOM
      1 C         138.1707  140.5531  164.2315 C.3     1  UNL1        0.0716
      2 C         138.0828  139.3660  165.1442 C.3     1  UNL1        0.0199
      3 C         138.7895  139.3831  166.4671 C.3     1  UNL1        0.0060
      4 C         139.5842  140.5874  166.8774 C.3     1  UNL1        0.0224
      5 C         139.6721  141.7745  165.9647 C.3     1  UNL1        0.0060
      6 C         138.9654  141.7574  164.6418 C.3     1  UNL1        0.0199
      7 C         140.2909  140.6045  168.2004 C.ar    1  UNL1       -0.0223
      8 C         141.7580  140.9108  168.2631 C.ar    1  UNL1       -0.0012
      9 C         142.4647  140.9279  169.5861 C.ar    1  UNL1        0.0363
     10 C         141.7044  140.6386  170.8463 C.ar    1  UNL1        0.1337
     11 O         142.4111  140.6557  172.1693 O.3     1  UNL1       -0.5055
     12 C         140.2373  140.3323  170.7836 C.ar    1  UNL1        0.0363
     13 C         139.5306  140.3152  169.4606 C.ar    1  UNL1       -0.0012
     14 H         143.3275  140.8471  172.2085 H       1  UNL1        0.2922
     15 C         138.0879  139.8427  161.7338 C.2     1  UNL1        0.2228
     16 O         139.4186  139.1665  161.8820 O.2     1  UNL1       -0.2751
     17 N         137.4639  140.5360  162.9085 N.am    1  UNL1       -0.3060
     18 H         136.5906  140.9799  162.8112 H       1  UNL1        0.1494
     19 C         137.3811  139.8256  160.4108 C.3     1  UNL1        0.0919
     20 C         138.0776  140.3301  159.1818 C.3     1  UNL1        0.0621
     21 C         142.2588  143.5272  158.7617 C.3     1  UNL1        0.0398
     22 C         140.8867  143.0063  159.0715 C.ar    1  UNL1        0.0278
     23 C         139.7735  143.7808  159.7126 C.ar    1  UNL1        0.1012
     24 N         138.5858  142.8726  159.8319 N.ar    1  UNL1       -0.2415
     25 C         138.9648  141.5367  159.2646 C.ar    1  UNL1        0.0884
     26 S         140.3869  141.6194  158.7947 S.2     1  UNL1       -0.0751
@<TRIPOS>BOND
     1    21    22    1
     2    22    23   ar
     3    23    24   ar
     4    24    25   ar
     5    25    20    1
     6    20    19    1
     7    19    15    1
     8    15    16    2
     9    15    17   am
    10     1    17    1
    11     1     2    1
    12     2     3    1
    13     3     4    1
    14     4     7    1
    15     7     8   ar
    16     8     9   ar
    17     9    10   ar
    18    10    11    1
    19    10    12   ar
    20    12    13   ar
    21     4     5    1
    22     5     6    1
    23    25    26   ar
    24    26    22   ar
    25     6     1    1
    26    13     7   ar
    27    17    18    1
    28    11    14    1
@<TRIPOS>MOLECULE
*****
 26 28 0 0 0
SMALL
GASTEIGER

@<TRIPOS>ATOM
      1 C         139.8645  141.8093  163.2775 C.3     1  UNL1        0.0716
      2 C         140.8533  142.7276  163.9324 C.3     1  UNL1        0.0199
      3 C         140.9582  142.7729  165.4280 C.3     1  UNL1        0.0060
      4 C         140.0745  141.8998  166.2687 C.3     1  UNL1        0.0224
      5 C         139.0857  140.9815  165.6137 C.3     1  UNL1        0.0060
      6 C         138.9808  140.9362  164.1181 C.3     1  UNL1        0.0199
      7 C         140.1795  141.9451  167.7644 C.ar    1  UNL1       -0.0223
      8 C         140.4538  143.2466  168.4579 C.ar    1  UNL1       -0.0012
      9 C         140.5588  143.2919  169.9536 C.ar    1  UNL1        0.0363
     10 C         140.3894  142.0357  170.7557 C.ar    1  UNL1        0.1337
     11 O         140.4944  142.0810  172.2513 O.3     1  UNL1       -0.5055
     12 C         140.1150  140.7342  170.0621 C.ar    1  UNL1        0.0363
     13 C         140.0101  140.6890  168.5665 C.ar    1  UNL1       -0.0012
     14 H         140.6658  142.8939  172.6845 H       1  UNL1        0.2922
     15 C         138.7409  142.6087  161.0755 C.2     1  UNL1        0.2228
     16 O         137.8272  143.4987  161.8649 O.2     1  UNL1       -0.2751
     17 N         139.7595  141.7640  161.7818 N.am    1  UNL1       -0.3060
     18 H         140.3592  141.1799  161.2637 H       1  UNL1        0.1494
     19 C         138.6359  142.5634  159.5798 C.3     1  UNL1        0.0919
     20 C         138.4449  141.2500  158.8808 C.3     1  UNL1        0.0621
     21 C         136.2829  142.7472  154.3021 C.3     1  UNL1        0.0398
     22 C         136.8573  141.9009  155.3993 C.ar    1  UNL1        0.0278
     23 C         137.0171  140.4096  155.3708 C.ar    1  UNL1        0.1012
     24 N         137.6313  139.9844  156.6715 N.ar    1  UNL1       -0.2415
     25 C         137.8511  141.2127  157.5039 C.ar    1  UNL1        0.0884
     26 S         137.3727  142.3972  156.7177 S.2     1  UNL1       -0.0751
@<TRIPOS>BOND
     1    21    22    1
     2    22    23   ar
     3    23    24   ar
     4    24    25   ar
     5    25    20    1
     6    20    19    1
     7    19    15    1
     8    15    16    2
     9    15    17   am
    10     1    17    1
    11     1     2    1
    12     2     3    1
    13     3     4    1
    14     4     7    1
    15     7     8   ar
    16     8     9   ar
    17     9    10   ar
    18    10    11    1
    19    10    12   ar
    20    12    13   ar
    21     4     5    1
    22     5     6    1
    23    25    26   ar
    24    26    22   ar
    25     6     1    1
    26    13     7   ar
    27    17    18    1
    28    11    14    1
@<TRIPOS>MOLECULE
*****
 26 28 0 0 0
SMALL
GASTEIGER

@<TRIPOS>ATOM
      1 C         139.7057  140.8733  163.2665 C.3     1  UNL1        0.0716
      2 C         138.8009  140.1427  164.2137 C.3     1  UNL1        0.0199
      3 C         138.9306  140.3592  165.6923 C.3     1  UNL1        0.0060
      4 C         139.9653  141.3064  166.2236 C.3     1  UNL1        0.0224
      5 C         140.8701  142.0371  165.2764 C.3     1  UNL1        0.0060
      6 C         140.7404  141.8205  163.7978 C.3     1  UNL1        0.0199
      7 C         140.0950  141.5229  167.7023 C.ar    1  UNL1       -0.0223
      8 C         139.7337  140.4230  168.6559 C.ar    1  UNL1       -0.0012
      9 C         139.8635  140.6395  170.1345 C.ar    1  UNL1        0.0363
     10 C         140.3545  141.9560  170.6595 C.ar    1  UNL1        0.1337
     11 O         140.4843  142.1726  172.1381 O.3     1  UNL1       -0.5055
     12 C         140.7158  143.0561  169.7058 C.ar    1  UNL1        0.0363
     13 C         140.5861  142.8395  168.2272 C.ar    1  UNL1       -0.0012
     14 H         140.2586  141.4855  172.7338 H       1  UNL1        0.2922
     15 C         138.5652  141.4376  161.0013 C.2     1  UNL1        0.2228
     16 O         137.6841  142.4349  161.6934 O.2     1  UNL1       -0.2751
     17 N         139.5760  140.6568  161.7878 N.am    1  UNL1       -0.3060
     18 H         140.1543  140.0022  161.3336 H       1  UNL1        0.1494
     19 C         138.4355  141.2210  159.5226 C.3     1  UNL1        0.0919
     20 C         138.2580  142.3946  158.6055 C.3     1  UNL1        0.0621
     21 C         142.1956  145.4235  156.8163 C.3     1  UNL1        0.0398
     22 C         141.1321  144.8406  157.6990 C.ar    1  UNL1        0.0278
     23 C         140.7875  145.2993  159.0850 C.ar    1  UNL1        0.1012
     24 N         139.6689  144.4388  159.5932 N.ar    1  UNL1       -0.2415
     25 C         139.3221  143.4484  158.5214 C.ar    1  UNL1        0.0884
     26 S         140.2264  143.6967  157.3507 S.2     1  UNL1       -0.0751
@<TRIPOS>BOND
     1    21    22    1
     2    22    23   ar
     3    23    24   ar
     4    24    25   ar
     5    25    20    1
     6    20    19    1
     7    19    15    1
     8    15    16    2
     9    15    17   am
    10     1    17    1
    11     1     2    1
    12     2     3    1
    13     3     4    1
    14     4     7    1
    15     7     8   ar
    16     8     9   ar
    17     9    10   ar
    18    10    11    1
    19    10    12   ar
    20    12    13   ar
    21     4     5    1
    22     5     6    1
    23    25    26   ar
    24    26    22   ar
    25     6     1    1
    26    13     7   ar
    27    17    18    1
    28    11    14    1
@<TRIPOS>MOLECULE
*****
 26 28 0 0 0
SMALL
GASTEIGER

@<TRIPOS>ATOM
      1 C         142.1349  139.4633  163.3783 C.3     1  UNL1        0.0716
      2 C         141.1602  140.4951  163.8634 C.3     1  UNL1        0.0199
      3 C         140.9130  140.6605  165.3336 C.3     1  UNL1        0.0060
      4 C         141.6405  139.7942  166.3187 C.3     1  UNL1        0.0224
      5 C         142.6152  138.7625  165.8335 C.3     1  UNL1        0.0060
      6 C         142.8624  138.5970  164.3633 C.3     1  UNL1        0.0199
      7 C         141.3932  139.9597  167.7889 C.ar    1  UNL1       -0.0223
      8 C         142.5267  139.8165  168.7608 C.ar    1  UNL1       -0.0012
      9 C         142.2794  139.9820  170.2311 C.ar    1  UNL1        0.0363
     10 C         140.8987  140.2908  170.7293 C.ar    1  UNL1        0.1337
     11 O         140.6514  140.4563  172.1995 O.3     1  UNL1       -0.5055
     12 C         139.7652  140.4340  169.7573 C.ar    1  UNL1        0.0363
     13 C         140.0125  140.2685  168.2871 C.ar    1  UNL1       -0.0012
     14 H         141.3594  140.3668  172.8066 H       1  UNL1        0.2922
     15 C         143.6265  139.8615  161.2887 C.2     1  UNL1        0.2228
     16 O         144.6237  140.5907  162.1395 O.2     1  UNL1       -0.2751
     17 N         142.3821  139.2978  161.9081 N.am    1  UNL1       -0.3060
     18 H         141.7276  138.8192  161.3496 H       1  UNL1        0.1494
     19 C         143.8738  139.6960  159.8184 C.3     1  UNL1        0.0919
     20 C         143.7498  140.8751  158.8996 C.3     1  UNL1        0.0621
     21 C         147.0959  142.7592  155.2755 C.3     1  UNL1        0.0398
     22 C         146.1715  141.8472  156.0264 C.ar    1  UNL1        0.0278
     23 C         145.8150  140.4418  155.6420 C.ar    1  UNL1        0.1012
     24 N         144.8644  139.9066  156.6715 N.ar    1  UNL1       -0.2415
     25 C         144.6334  140.9812  157.6922 C.ar    1  UNL1        0.0884
     26 S         145.4412  142.1806  157.2935 S.2     1  UNL1       -0.0751
@<TRIPOS>BOND
     1    21    22    1
     2    22    23   ar
     3    23    24   ar
     4    24    25   ar
     5    25    20    1
     6    20    19    1
     7    19    15    1
     8    15    16    2
     9    15    17   am
    10     1    17    1
    11     1     2    1
    12     2     3    1
    13     3     4    1
    14     4     7    1
    15     7     8   ar
    16     8     9   ar
    17     9    10   ar
    18    10    11    1
    19    10    12   ar
    20    12    13   ar
    21     4     5    1
    22     5     6    1
    23    25    26   ar
    24    26    22   ar
    25     6     1    1
    26    13     7   ar
    27    17    18    1
    28    11    14    1
