@<TRIPOS>MOLECULE
*****
 38 41 0 0 0
SMALL
GASTEIGER

@<TRIPOS>ATOM
      1 N         142.2801  142.5063  166.0011 N.am    1  UNL1       -0.2781
      2 C         140.9490  142.7288  165.3462 C.2     1  UNL1        0.2685
      3 O         139.7092  142.1353  165.9467 O.2     1  UNL1       -0.2681
      4 H         143.0938  142.8958  165.6070 H       1  UNL1        0.1553
      5 C         140.8578  143.5448  164.0909 C.ar    1  UNL1        0.1475
      6 N         141.7003  143.1888  162.9021 N.ar    1  UNL1       -0.2379
      7 C         141.6091  144.0048  161.6468 C.ar    1  UNL1        0.1013
      8 C         140.6754  145.1768  161.5803 C.ar    1  UNL1        0.0220
      9 C         139.8328  145.5328  162.7692 C.ar    1  UNL1        0.0174
     10 C         139.9240  144.7168  164.0245 C.ar    1  UNL1        0.0640
     11 N         139.0814  145.0728  165.2133 N.pl3   1  UNL1       -0.3557
     12 H         138.4685  145.8421  165.1697 H       1  UNL1        0.1424
     13 H         139.1413  144.5373  166.0372 H       1  UNL1        0.1424
     14 C         142.4517  143.6488  160.4580 C.ar    1  UNL1        0.1262
     15 N         142.1441  144.2434  159.1156 N.ar    1  UNL1       -0.2400
     16 C         142.9867  143.8874  157.9268 C.ar    1  UNL1        0.0990
     17 C         144.1368  142.9368  158.0803 C.ar    1  UNL1        0.0230
     18 C         144.4444  142.3422  159.4226 C.ar    1  UNL1        0.0328
     19 C         143.6018  142.6982  160.6115 C.ar    1  UNL1        0.1591
     20 F         143.9094  142.1037  161.9538 F       1  UNL1       -0.2025
     21 C         142.4755  140.1962  167.1738 C.ar    1  UNL1       -0.0059
     22 C         142.5667  139.3802  168.4291 C.ar    1  UNL1        0.0176
     23 C         142.5537  140.0583  169.7670 C.ar    1  UNL1        0.0987
     24 N         142.4495  141.5524  169.8497 N.ar    1  UNL1       -0.2410
     25 C         142.3583  142.3684  168.5944 C.ar    1  UNL1        0.1132
     26 C         142.3713  141.6903  167.2564 C.ar    1  UNL1        0.0660
     27 C         140.1617  137.1697  163.6402 C.3     1  UNL1        0.0025
     28 C         141.3315  138.0048  164.0691 C.3     1  UNL1        0.0273
     29 C         141.3186  138.6829  165.4070 C.3     1  UNL1        0.0069
     30 C         142.4885  139.5181  165.8359 C.3     1  UNL1        0.0262
     31 C         143.6713  139.6751  164.9269 C.3     1  UNL1        0.0360
     32 C         143.6842  138.9970  163.5891 C.3     1  UNL1        0.1352
     33 O         144.8671  139.1540  162.6800 O.3     1  UNL1       -0.3821
     34 C         142.5144  138.1618  163.1601 C.3     1  UNL1        0.1128
     35 C         143.3974  138.0106  161.9571 C.3     1  UNL1        0.0318
     36 O         141.6512  137.2742  162.3134 O.3     1  UNL1       -0.3844
     37 H         144.7148  138.6551  161.8622 H       1  UNL1        0.2104
     38 H         142.1047  137.0846  161.4771 H       1  UNL1        0.2103
@<TRIPOS>BOND
     1    28    27    1
     2    28    29    1
     3    29    30    1
     4    30    21    1
     5    21    22   ar
     6    22    23   ar
     7    23    24   ar
     8    24    25   ar
     9    25    26   ar
    10    26     1    1
    11     1     2   am
    12     2     3    2
    13     2     5    1
    14     5     6   ar
    15     6     7   ar
    16     7    14    1
    17    14    15   ar
    18    15    16   ar
    19    16    17   ar
    20    17    18   ar
    21    18    19   ar
    22    19    20    1
    23     7     8   ar
    24     8     9   ar
    25     9    10   ar
    26    10    11    1
    27    30    31    1
    28    31    32    1
    29    32    33    1
    30    32    34    1
    31    34    35    1
    32    34    36    1
    33    34    28    1
    34    26    21   ar
    35    10     5   ar
    36    19    14   ar
    37     1     4    1
    38    11    12    1
    39    11    13    1
    40    33    37    1
    41    36    38    1
@<TRIPOS>MOLECULE
*****
 38 41 0 0 0
SMALL
GASTEIGER

@<TRIPOS>ATOM
      1 N         142.2481  139.8948  162.6409 N.am    1  UNL1       -0.2781
      2 C         140.7760  139.7870  162.9083 C.2     1  UNL1        0.2685
      3 O         139.8069  139.7473  161.7642 O.2     1  UNL1       -0.2681
      4 H         142.8842  139.9209  163.3919 H       1  UNL1        0.1553
      5 C         140.2732  139.7191  164.3199 C.ar    1  UNL1        0.1475
      6 N         140.9427  140.5240  165.3941 N.ar    1  UNL1       -0.2379
      7 C         140.4398  140.4560  166.8057 C.ar    1  UNL1        0.1013
      8 C         139.2675  139.5832  167.1430 C.ar    1  UNL1        0.0220
      9 C         138.5980  138.7783  166.0688 C.ar    1  UNL1        0.0174
     10 C         139.1008  138.8462  164.6572 C.ar    1  UNL1        0.0640
     11 N         138.4314  138.0414  163.5830 N.pl3   1  UNL1       -0.3557
     12 H         137.6619  137.4685  163.8044 H       1  UNL1        0.1424
     13 H         138.7614  138.0860  162.6565 H       1  UNL1        0.1424
     14 C         141.1093  141.2609  167.8799 C.ar    1  UNL1        0.1262
     15 N         140.4316  142.4771  168.4382 N.ar    1  UNL1       -0.2400
     16 C         141.1011  143.2819  169.5124 C.ar    1  UNL1        0.0990
     17 C         142.4482  142.8707  170.0283 C.ar    1  UNL1        0.0230
     18 C         143.1259  141.6545  169.4700 C.ar    1  UNL1        0.0328
     19 C         142.4564  140.8496  168.3958 C.ar    1  UNL1        0.1591
     20 F         143.1340  139.6334  167.8375 F       1  UNL1       -0.2025
     21 C         142.7538  141.2714  160.4963 C.ar    1  UNL1       -0.0059
     22 C         143.2566  141.3393  159.0848 C.ar    1  UNL1        0.0176
     23 C         143.7567  140.0986  158.4062 C.ar    1  UNL1        0.0987
     24 N         143.7539  138.7899  159.1392 N.ar    1  UNL1       -0.2410
     25 C         143.2510  138.7219  160.5508 C.ar    1  UNL1        0.1132
     26 C         142.7510  139.9627  161.2293 C.ar    1  UNL1        0.0660
     27 C         143.5291  145.2381  163.7619 C.3     1  UNL1        0.0025
     28 C         142.6414  144.4955  162.8077 C.3     1  UNL1        0.0273
     29 C         143.1414  143.2548  162.1291 C.3     1  UNL1        0.0069
     30 C         142.2537  142.5122  161.1749 C.3     1  UNL1        0.0262
     31 C         140.8660  143.0104  160.8993 C.3     1  UNL1        0.0360
     32 C         140.3660  144.2511  161.5778 C.3     1  UNL1        0.1352
     33 O         138.9782  144.7494  161.3022 O.3     1  UNL1       -0.3821
     34 C         141.2537  144.9937  162.5320 C.3     1  UNL1        0.1128
     35 C         140.0262  145.8535  162.5954 C.3     1  UNL1        0.0318
     36 O         141.7151  146.0349  163.5083 O.3     1  UNL1       -0.3844
     37 H         138.8156  145.5549  161.8175 H       1  UNL1        0.2104
     38 H         141.0050  146.6797  163.6530 H       1  UNL1        0.2103
@<TRIPOS>BOND
     1    28    27    1
     2    28    29    1
     3    29    30    1
     4    30    21    1
     5    21    22   ar
     6    22    23   ar
     7    23    24   ar
     8    24    25   ar
     9    25    26   ar
    10    26     1    1
    11     1     2   am
    12     2     3    2
    13     2     5    1
    14     5     6   ar
    15     6     7   ar
    16     7    14    1
    17    14    15   ar
    18    15    16   ar
    19    16    17   ar
    20    17    18   ar
    21    18    19   ar
    22    19    20    1
    23     7     8   ar
    24     8     9   ar
    25     9    10   ar
    26    10    11    1
    27    30    31    1
    28    31    32    1
    29    32    33    1
    30    32    34    1
    31    34    35    1
    32    34    36    1
    33    34    28    1
    34    26    21   ar
    35    10     5   ar
    36    19    14   ar
    37     1     4    1
    38    11    12    1
    39    11    13    1
    40    33    37    1
    41    36    38    1
@<TRIPOS>MOLECULE
*****
 38 41 0 0 0
SMALL
GASTEIGER

@<TRIPOS>ATOM
      1 N         139.8151  140.8556  166.2715 N.am    1  UNL1       -0.2781
      2 C         140.2050  142.1533  165.6280 C.2     1  UNL1        0.2685
      3 O         141.3392  142.9581  166.1900 O.2     1  UNL1       -0.2681
      4 H         139.0706  140.3273  165.9027 H       1  UNL1        0.1553
      5 C         139.4606  142.6461  164.4227 C.ar    1  UNL1        0.1475
      6 N         139.4934  141.8581  163.1468 N.ar    1  UNL1       -0.2379
      7 C         138.7490  142.3509  161.9415 C.ar    1  UNL1        0.1013
      8 C         137.9718  143.6319  162.0119 C.ar    1  UNL1        0.0220
      9 C         137.9389  144.4200  163.2878 C.ar    1  UNL1        0.0174
     10 C         138.6833  143.9272  164.4932 C.ar    1  UNL1        0.0640
     11 N         138.6505  144.7153  165.7690 N.pl3   1  UNL1       -0.3557
     12 H         138.1404  145.5560  165.8152 H       1  UNL1        0.1424
     13 H         139.1391  144.3918  166.5601 H       1  UNL1        0.1424
     14 C         138.7818  141.5628  160.6656 C.ar    1  UNL1        0.1262
     15 N         138.6286  142.2626  159.3477 N.ar    1  UNL1       -0.2400
     16 C         138.6614  141.4745  158.0718 C.ar    1  UNL1        0.0990
     17 C         138.8474  139.9866  158.1139 C.ar    1  UNL1        0.0230
     18 C         139.0006  139.2869  159.4318 C.ar    1  UNL1        0.0328
     19 C         138.9678  140.0750  160.7077 C.ar    1  UNL1        0.1591
     20 F         139.1210  139.3753  162.0256 F       1  UNL1       -0.2025
     21 C         141.8519  139.6203  167.3085 C.ar    1  UNL1       -0.0059
     22 C         142.5963  139.1274  168.5139 C.ar    1  UNL1        0.0176
     23 C         142.0483  139.3770  169.8877 C.ar    1  UNL1        0.0987
     24 N         140.7558  140.1194  170.0561 N.ar    1  UNL1       -0.2410
     25 C         140.0114  140.6123  168.8508 C.ar    1  UNL1        0.1132
     26 C         140.5595  140.3627  167.4769 C.ar    1  UNL1        0.0660
     27 C         145.3148  140.6841  163.5834 C.3     1  UNL1        0.0025
     28 C         144.1314  139.9026  164.0721 C.3     1  UNL1        0.0273
     29 C         143.5834  140.1521  165.4459 C.3     1  UNL1        0.0069
     30 C         142.4000  139.3706  165.9346 C.3     1  UNL1        0.0262
     31 C         141.7647  138.3396  165.0496 C.3     1  UNL1        0.0360
     32 C         142.3128  138.0900  163.6759 C.3     1  UNL1        0.1352
     33 O         141.6774  137.0589  162.7908 O.3     1  UNL1       -0.3821
     34 C         143.4961  138.8715  163.1871 C.3     1  UNL1        0.1128
     35 C         143.2410  138.0077  161.9877 C.3     1  UNL1        0.0318
     36 O         144.5909  139.3529  162.2817 O.3     1  UNL1       -0.3844
     37 H         142.1500  137.0239  161.9444 H       1  UNL1        0.2104
     38 H         144.5512  138.8701  161.4414 H       1  UNL1        0.2103
@<TRIPOS>BOND
     1    28    27    1
     2    28    29    1
     3    29    30    1
     4    30    21    1
     5    21    22   ar
     6    22    23   ar
     7    23    24   ar
     8    24    25   ar
     9    25    26   ar
    10    26     1    1
    11     1     2   am
    12     2     3    2
    13     2     5    1
    14     5     6   ar
    15     6     7   ar
    16     7    14    1
    17    14    15   ar
    18    15    16   ar
    19    16    17   ar
    20    17    18   ar
    21    18    19   ar
    22    19    20    1
    23     7     8   ar
    24     8     9   ar
    25     9    10   ar
    26    10    11    1
    27    30    31    1
    28    31    32    1
    29    32    33    1
    30    32    34    1
    31    34    35    1
    32    34    36    1
    33    34    28    1
    34    26    21   ar
    35    10     5   ar
    36    19    14   ar
    37     1     4    1
    38    11    12    1
    39    11    13    1
    40    33    37    1
    41    36    38    1
@<TRIPOS>MOLECULE
*****
 38 41 0 0 0
SMALL
GASTEIGER

@<TRIPOS>ATOM
      1 N         140.7869  142.5986  166.2384 N.am    1  UNL1       -0.2781
      2 C         142.1390  142.2627  165.6825 C.2     1  UNL1        0.2685
      3 O         143.0068  141.2559  166.3777 O.2     1  UNL1       -0.2681
      4 H         140.2173  143.2594  165.7821 H       1  UNL1        0.1553
      5 C         142.6233  142.9336  164.4314 C.ar    1  UNL1        0.1475
      6 N         141.8472  142.7917  163.1557 N.ar    1  UNL1       -0.2379
      7 C         142.3315  143.4626  161.9045 C.ar    1  UNL1        0.1013
      8 C         143.5919  144.2754  161.9291 C.ar    1  UNL1        0.0220
      9 C         144.3681  144.4174  163.2049 C.ar    1  UNL1        0.0174
     10 C         143.8838  143.7464  164.4560 C.ar    1  UNL1        0.0640
     11 N         144.6599  143.8883  165.7317 N.pl3   1  UNL1       -0.3557
     12 H         145.4872  144.4218  165.7478 H       1  UNL1        0.1424
     13 H         144.3420  143.4480  166.5528 H       1  UNL1        0.1424
     14 C         141.5554  143.3207  160.6288 C.ar    1  UNL1        0.1262
     15 N         141.5734  142.0208  159.8805 N.ar    1  UNL1       -0.2400
     16 C         140.7973  141.8789  158.6048 C.ar    1  UNL1        0.0990
     17 C         140.0031  143.0369  158.0773 C.ar    1  UNL1        0.0230
     18 C         139.9851  144.3368  158.8255 C.ar    1  UNL1        0.0328
     19 C         140.7612  144.4788  160.1013 C.ar    1  UNL1        0.1591
     20 F         140.7431  145.7787  160.8495 F       1  UNL1       -0.2025
     21 C         139.6597  140.5746  167.4143 C.ar    1  UNL1       -0.0059
     22 C         139.1753  139.9037  168.6654 C.ar    1  UNL1        0.0176
     23 C         139.3339  140.5859  169.9918 C.ar    1  UNL1        0.0987
     24 N         139.9769  141.9391  170.0671 N.ar    1  UNL1       -0.2410
     25 C         140.4612  142.6100  168.8160 C.ar    1  UNL1        0.1132
     26 C         140.3025  141.9277  167.4895 C.ar    1  UNL1        0.0660
     27 C         141.1067  136.8912  164.0469 C.3     1  UNL1        0.0025
     28 C         140.2246  138.0506  164.4042 C.3     1  UNL1        0.0273
     29 C         140.3832  138.7329  165.7306 C.3     1  UNL1        0.0069
     30 C         139.5010  139.8923  166.0878 C.3     1  UNL1        0.0262
     31 C         138.4603  140.3694  165.1187 C.3     1  UNL1        0.0360
     32 C         138.3018  139.6871  163.7923 C.3     1  UNL1        0.1352
     33 O         137.2610  140.1642  162.8231 O.3     1  UNL1       -0.3821
     34 C         139.1839  138.5277  163.4351 C.3     1  UNL1        0.1128
     35 C         138.3488  138.6124  162.1919 C.3     1  UNL1        0.0318
     36 O         139.7760  137.3978  162.6460 O.3     1  UNL1       -0.3844
     37 H         137.2914  139.6188  162.0216 H       1  UNL1        0.2104
     38 H         139.3229  137.3281  161.7911 H       1  UNL1        0.2103
@<TRIPOS>BOND
     1    28    27    1
     2    28    29    1
     3    29    30    1
     4    30    21    1
     5    21    22   ar
     6    22    23   ar
     7    23    24   ar
     8    24    25   ar
     9    25    26   ar
    10    26     1    1
    11     1     2   am
    12     2     3    2
    13     2     5    1
    14     5     6   ar
    15     6     7   ar
    16     7    14    1
    17    14    15   ar
    18    15    16   ar
    19    16    17   ar
    20    17    18   ar
    21    18    19   ar
    22    19    20    1
    23     7     8   ar
    24     8     9   ar
    25     9    10   ar
    26    10    11    1
    27    30    31    1
    28    31    32    1
    29    32    33    1
    30    32    34    1
    31    34    35    1
    32    34    36    1
    33    34    28    1
    34    26    21   ar
    35    10     5   ar
    36    19    14   ar
    37     1     4    1
    38    11    12    1
    39    11    13    1
    40    33    37    1
    41    36    38    1
@<TRIPOS>MOLECULE
*****
 38 41 0 0 0
SMALL
GASTEIGER

@<TRIPOS>ATOM
      1 N         142.2730  140.2087  165.9194 N.am    1  UNL1       -0.2781
      2 C         142.4052  141.5050  165.1764 C.2     1  UNL1        0.2685
      3 O         141.7141  142.7351  165.6854 O.2     1  UNL1       -0.2681
      4 H         142.7266  139.4013  165.5853 H       1  UNL1        0.1553
      5 C         143.2285  141.5712  163.9243 C.ar    1  UNL1        0.1475
      6 N         142.8641  140.7239  162.7414 N.ar    1  UNL1       -0.2379
      7 C         143.6874  140.7901  161.4893 C.ar    1  UNL1        0.1013
      8 C         144.8752  141.7035  161.4201 C.ar    1  UNL1        0.0220
      9 C         145.2397  142.5508  162.6030 C.ar    1  UNL1        0.0174
     10 C         144.4163  142.4847  163.8551 C.ar    1  UNL1        0.0640
     11 N         144.7808  143.3319  165.0380 N.pl3   1  UNL1       -0.3557
     12 H         145.5603  143.9315  164.9927 H       1  UNL1        0.1424
     13 H         144.2404  143.2885  165.8598 H       1  UNL1        0.1424
     14 C         143.3230  139.9429  160.3064 C.ar    1  UNL1        0.1262
     15 N         143.0063  140.5889  158.9902 N.ar    1  UNL1       -0.2400
     16 C         142.6418  139.7417  157.8072 C.ar    1  UNL1        0.0990
     17 C         142.5941  138.2484  157.9405 C.ar    1  UNL1        0.0230
     18 C         142.9108  137.6023  159.2566 C.ar    1  UNL1        0.0328
     19 C         143.2753  138.4496  160.4396 C.ar    1  UNL1        0.1591
     20 F         143.5920  137.8035  161.7557 F       1  UNL1       -0.2025
     21 C         139.9576  140.0166  167.0823 C.ar    1  UNL1       -0.0059
     22 C         139.1343  139.9505  168.3344 C.ar    1  UNL1        0.0176
     23 C         139.8029  140.0102  169.6757 C.ar    1  UNL1        0.0987
     24 N         141.2950  140.1360  169.7650 N.ar    1  UNL1       -0.2410
     25 C         142.1184  140.2022  168.5129 C.ar    1  UNL1        0.1132
     26 C         141.4496  140.1425  167.1715 C.ar    1  UNL1        0.0660
     27 C         137.2883  142.3401  163.2775 C.3     1  UNL1        0.0025
     28 C         137.9542  141.1187  163.8385 C.3     1  UNL1        0.0273
     29 C         138.6229  141.1784  165.1798 C.3     1  UNL1        0.0069
     30 C         139.2889  139.9570  165.7409 C.3     1  UNL1        0.0262
     31 C         139.2860  138.6759  164.9606 C.3     1  UNL1        0.0360
     32 C         138.6173  138.6163  163.6193 C.3     1  UNL1        0.1352
     33 O         138.6144  137.3352  162.8389 O.3     1  UNL1       -0.3821
     34 C         137.9514  139.8377  163.0582 C.3     1  UNL1        0.1128
     35 C         137.6852  138.8633  161.9493 C.3     1  UNL1        0.0318
     36 O         137.1930  140.7206  162.1120 O.3     1  UNL1       -0.3844
     37 H         138.1440  137.4680  162.0011 H       1  UNL1        0.2104
     38 H         136.9463  140.2127  161.3233 H       1  UNL1        0.2103
@<TRIPOS>BOND
     1    28    27    1
     2    28    29    1
     3    29    30    1
     4    30    21    1
     5    21    22   ar
     6    22    23   ar
     7    23    24   ar
     8    24    25   ar
     9    25    26   ar
    10    26     1    1
    11     1     2   am
    12     2     3    2
    13     2     5    1
    14     5     6   ar
    15     6     7   ar
    16     7    14    1
    17    14    15   ar
    18    15    16   ar
    19    16    17   ar
    20    17    18   ar
    21    18    19   ar
    22    19    20    1
    23     7     8   ar
    24     8     9   ar
    25     9    10   ar
    26    10    11    1
    27    30    31    1
    28    31    32    1
    29    32    33    1
    30    32    34    1
    31    34    35    1
    32    34    36    1
    33    34    28    1
    34    26    21   ar
    35    10     5   ar
    36    19    14   ar
    37     1     4    1
    38    11    12    1
    39    11    13    1
    40    33    37    1
    41    36    38    1
@<TRIPOS>MOLECULE
*****
 38 41 0 0 0
SMALL
GASTEIGER

@<TRIPOS>ATOM
      1 N         141.1394  142.6682  159.9663 N.am    1  UNL1       -0.2781
      2 C         141.2628  143.7411  161.0074 C.2     1  UNL1        0.2685
      3 O         142.3641  144.7550  160.9125 O.2     1  UNL1       -0.2681
      4 H         140.4165  142.0027  160.0286 H       1  UNL1        0.1553
      5 C         140.2850  143.7999  162.1433 C.ar    1  UNL1        0.1475
      6 N         140.1938  142.6601  163.1142 N.ar    1  UNL1       -0.2379
      7 C         139.2160  142.7190  164.2502 C.ar    1  UNL1        0.1013
      8 C         138.3294  143.9175  164.4153 C.ar    1  UNL1        0.0220
      9 C         138.4205  145.0573  163.4443 C.ar    1  UNL1        0.0174
     10 C         139.3984  144.9985  162.3084 C.ar    1  UNL1        0.0640
     11 N         139.4895  146.1382  161.3375 N.pl3   1  UNL1       -0.3557
     12 H         138.9076  146.9249  161.4458 H       1  UNL1        0.1424
     13 H         140.1313  146.0996  160.5919 H       1  UNL1        0.1424
     14 C         139.1248  141.5792  165.2210 C.ar    1  UNL1        0.1262
     15 N         139.9190  141.6123  166.4932 N.ar    1  UNL1       -0.2400
     16 C         139.8279  140.4725  167.4641 C.ar    1  UNL1        0.0990
     17 C         138.9425  139.2997  167.1629 C.ar    1  UNL1        0.0230
     18 C         138.1484  139.2667  165.8908 C.ar    1  UNL1        0.0328
     19 C         138.2395  140.4064  164.9199 C.ar    1  UNL1        0.1591
     20 F         137.4453  140.3734  163.6478 F       1  UNL1       -0.2025
     21 C         143.4443  141.9358  159.0172 C.ar    1  UNL1       -0.0059
     22 C         144.4221  141.8770  157.8812 C.ar    1  UNL1        0.0176
     23 C         144.0728  142.4917  156.5584 C.ar    1  UNL1        0.0987
     24 N         142.7456  143.1654  156.3714 N.ar    1  UNL1       -0.2410
     25 C         141.7678  143.2242  157.5074 C.ar    1  UNL1        0.1132
     26 C         142.1172  142.6094  158.8303 C.ar    1  UNL1        0.0660
     27 C         142.8888  138.1087  162.4878 C.3     1  UNL1        0.0025
     28 C         143.5159  139.4074  162.0754 C.3     1  UNL1        0.0273
     29 C         143.1666  140.0222  160.7525 C.3     1  UNL1        0.0069
     30 C         143.7937  141.3210  160.3401 C.3     1  UNL1        0.0262
     31 C         144.7700  142.0049  161.2505 C.3     1  UNL1        0.0360
     32 C         145.1194  141.3900  162.5734 C.3     1  UNL1        0.1352
     33 O         146.0958  142.0740  163.4839 O.3     1  UNL1       -0.3821
     34 C         144.4923  140.0913  162.9858 C.3     1  UNL1        0.1128
     35 C         145.3550  140.3561  164.1839 C.3     1  UNL1        0.0318
     36 O         144.1649  138.8846  163.8144 O.3     1  UNL1       -0.3844
     37 H         146.2085  141.5478  164.2909 H       1  UNL1        0.2104
     38 H         144.6636  138.9182  164.6457 H       1  UNL1        0.2103
@<TRIPOS>BOND
     1    28    27    1
     2    28    29    1
     3    29    30    1
     4    30    21    1
     5    21    22   ar
     6    22    23   ar
     7    23    24   ar
     8    24    25   ar
     9    25    26   ar
    10    26     1    1
    11     1     2   am
    12     2     3    2
    13     2     5    1
    14     5     6   ar
    15     6     7   ar
    16     7    14    1
    17    14    15   ar
    18    15    16   ar
    19    16    17   ar
    20    17    18   ar
    21    18    19   ar
    22    19    20    1
    23     7     8   ar
    24     8     9   ar
    25     9    10   ar
    26    10    11    1
    27    30    31    1
    28    31    32    1
    29    32    33    1
    30    32    34    1
    31    34    35    1
    32    34    36    1
    33    34    28    1
    34    26    21   ar
    35    10     5   ar
    36    19    14   ar
    37     1     4    1
    38    11    12    1
    39    11    13    1
    40    33    37    1
    41    36    38    1
@<TRIPOS>MOLECULE
*****
 38 41 0 0 0
SMALL
GASTEIGER

@<TRIPOS>ATOM
      1 N         141.7208  139.8601  165.5332 N.am    1  UNL1       -0.2781
      2 C         140.2484  139.8939  165.2483 C.2     1  UNL1        0.2685
      3 O         139.3027  140.4767  166.2562 O.2     1  UNL1       -0.2681
      4 H         142.3415  139.4776  164.8716 H       1  UNL1        0.1553
      5 C         139.7219  139.3450  163.9555 C.ar    1  UNL1        0.1475
      6 N         139.9783  140.0755  162.6707 N.ar    1  UNL1       -0.2379
      7 C         139.4517  139.5266  161.3779 C.ar    1  UNL1        0.1013
      8 C         138.6688  138.2472  161.3698 C.ar    1  UNL1        0.0220
      9 C         138.4123  137.5166  162.6546 C.ar    1  UNL1        0.0174
     10 C         138.9389  138.0656  163.9474 C.ar    1  UNL1        0.0640
     11 N         138.6825  137.3351  165.2322 N.pl3   1  UNL1       -0.3557
     12 H         138.1686  136.4954  165.2269 H       1  UNL1        0.1424
     13 H         139.0281  137.6954  166.0807 H       1  UNL1        0.1424
     14 C         139.7081  140.2570  160.0931 C.ar    1  UNL1        0.1262
     15 N         138.6126  141.0582  159.4543 N.ar    1  UNL1       -0.2400
     16 C         138.8690  141.7887  158.1696 C.ar    1  UNL1        0.0990
     17 C         140.2209  141.7180  157.5236 C.ar    1  UNL1        0.0230
     18 C         141.3164  140.9169  158.1623 C.ar    1  UNL1        0.0328
     19 C         141.0601  140.1864  159.4471 C.ar    1  UNL1        0.1591
     20 F         142.1556  139.3852  160.0858 F       1  UNL1       -0.2025
     21 C         142.5805  141.8669  166.9415 C.ar    1  UNL1       -0.0059
     22 C         143.1071  142.4159  168.2343 C.ar    1  UNL1        0.0176
     23 C         143.3004  141.5069  169.4117 C.ar    1  UNL1        0.0987
     24 N         142.9672  140.0488  169.2963 N.ar    1  UNL1       -0.2410
     25 C         142.4407  139.4999  168.0034 C.ar    1  UNL1        0.1132
     26 C         142.2473  140.4090  166.8260 C.ar    1  UNL1        0.0660
     27 C         144.4292  144.1004  162.6294 C.3     1  UNL1        0.0025
     28 C         143.3116  143.8927  163.6080 C.3     1  UNL1        0.0273
     29 C         143.5048  142.9837  164.7854 C.3     1  UNL1        0.0069
     30 C         142.3872  142.7760  165.7641 C.3     1  UNL1        0.0262
     31 C         141.0763  143.4774  165.5653 C.3     1  UNL1        0.0360
     32 C         140.8830  144.3865  164.3880 C.3     1  UNL1        0.1352
     33 O         139.5721  145.0879  164.1892 O.3     1  UNL1       -0.3821
     34 C         142.0007  144.5941  163.4093 C.3     1  UNL1        0.1128
     35 C         140.9513  145.4737  162.7969 C.3     1  UNL1        0.0318
     36 O         142.7538  145.1073  162.2179 O.3     1  UNL1       -0.3844
     37 H         139.6149  145.6322  163.3874 H       1  UNL1        0.2104
     38 H         142.1855  145.7073  161.7100 H       1  UNL1        0.2103
@<TRIPOS>BOND
     1    28    27    1
     2    28    29    1
     3    29    30    1
     4    30    21    1
     5    21    22   ar
     6    22    23   ar
     7    23    24   ar
     8    24    25   ar
     9    25    26   ar
    10    26     1    1
    11     1     2   am
    12     2     3    2
    13     2     5    1
    14     5     6   ar
    15     6     7   ar
    16     7    14    1
    17    14    15   ar
    18    15    16   ar
    19    16    17   ar
    20    17    18   ar
    21    18    19   ar
    22    19    20    1
    23     7     8   ar
    24     8     9   ar
    25     9    10   ar
    26    10    11    1
    27    30    31    1
    28    31    32    1
    29    32    33    1
    30    32    34    1
    31    34    35    1
    32    34    36    1
    33    34    28    1
    34    26    21   ar
    35    10     5   ar
    36    19    14   ar
    37     1     4    1
    38    11    12    1
    39    11    13    1
    40    33    37    1
    41    36    38    1
@<TRIPOS>MOLECULE
*****
 38 41 0 0 0
SMALL
GASTEIGER

@<TRIPOS>ATOM
      1 N         141.9255  141.9287  165.8453 N.am    1  UNL1       -0.2781
      2 C         142.6738  141.0598  164.8782 C.2     1  UNL1        0.2685
      3 O         142.8438  139.5965  165.1610 O.2     1  UNL1       -0.2681
      4 H         141.8140  142.8890  165.6597 H       1  UNL1        0.1553
      5 C         143.2521  141.6542  163.6283 C.ar    1  UNL1        0.1475
      6 N         142.3732  142.4241  162.6878 N.ar    1  UNL1       -0.2379
      7 C         142.9515  143.0185  161.4379 C.ar    1  UNL1        0.1013
      8 C         144.4086  142.8430  161.1285 C.ar    1  UNL1        0.0220
      9 C         145.2876  142.0730  162.0691 C.ar    1  UNL1        0.0174
     10 C         144.7094  141.4786  163.3190 C.ar    1  UNL1        0.0640
     11 N         145.5883  140.7087  164.2595 N.pl3   1  UNL1       -0.3557
     12 H         146.5447  140.5935  164.0565 H       1  UNL1        0.1424
     13 H         145.2087  140.3186  165.0799 H       1  UNL1        0.1424
     14 C         142.0726  143.7885  160.4973 C.ar    1  UNL1        0.1262
     15 N         142.0546  143.4454  159.0371 N.ar    1  UNL1       -0.2400
     16 C         141.1757  144.2154  158.0966 C.ar    1  UNL1        0.0990
     17 C         140.3147  145.3284  158.6161 C.ar    1  UNL1        0.0230
     18 C         140.3327  145.6715  160.0762 C.ar    1  UNL1        0.0328
     19 C         141.2116  144.9015  161.0169 C.ar    1  UNL1        0.1591
     20 F         141.2295  145.2446  162.4770 F       1  UNL1       -0.2025
     21 C         140.0752  140.5421  167.0300 C.ar    1  UNL1       -0.0059
     22 C         139.4969  139.9476  168.2799 C.ar    1  UNL1        0.0176
     23 C         140.1907  140.1454  169.5950 C.ar    1  UNL1        0.0987
     24 N         141.4628  140.9376  169.6602 N.ar    1  UNL1       -0.2410
     25 C         142.0411  141.5321  168.4103 C.ar    1  UNL1        0.1132
     26 C         141.3472  141.3342  167.0952 C.ar    1  UNL1        0.0660
     27 C         137.2410  142.4353  163.1079 C.3     1  UNL1        0.0025
     28 C         137.9643  141.2909  163.7538 C.3     1  UNL1        0.0273
     29 C         138.6581  141.4886  165.0689 C.3     1  UNL1        0.0069
     30 C         139.3814  140.3442  165.7148 C.3     1  UNL1        0.0262
     31 C         139.4108  139.0021  165.0457 C.3     1  UNL1        0.0360
     32 C         138.7170  138.8044  163.7306 C.3     1  UNL1        0.1352
     33 O         138.7465  137.4622  163.0614 O.3     1  UNL1       -0.3821
     34 C         137.9937  139.9488  163.0847 C.3     1  UNL1        0.1128
     35 C         137.7416  138.8744  162.0687 C.3     1  UNL1        0.0318
     36 O         137.1829  140.7200  162.0858 O.3     1  UNL1       -0.3844
     37 H         138.2540  137.5061  162.2269 H       1  UNL1        0.2104
     38 H         136.9392  140.1382  161.3489 H       1  UNL1        0.2103
@<TRIPOS>BOND
     1    28    27    1
     2    28    29    1
     3    29    30    1
     4    30    21    1
     5    21    22   ar
     6    22    23   ar
     7    23    24   ar
     8    24    25   ar
     9    25    26   ar
    10    26     1    1
    11     1     2   am
    12     2     3    2
    13     2     5    1
    14     5     6   ar
    15     6     7   ar
    16     7    14    1
    17    14    15   ar
    18    15    16   ar
    19    16    17   ar
    20    17    18   ar
    21    18    19   ar
    22    19    20    1
    23     7     8   ar
    24     8     9   ar
    25     9    10   ar
    26    10    11    1
    27    30    31    1
    28    31    32    1
    29    32    33    1
    30    32    34    1
    31    34    35    1
    32    34    36    1
    33    34    28    1
    34    26    21   ar
    35    10     5   ar
    36    19    14   ar
    37     1     4    1
    38    11    12    1
    39    11    13    1
    40    33    37    1
    41    36    38    1
@<TRIPOS>MOLECULE
*****
 38 41 0 0 0
SMALL
GASTEIGER

@<TRIPOS>ATOM
      1 N         139.6921  140.5883  162.1287 N.am    1  UNL1       -0.2781
      2 C         139.8702  142.0757  162.2068 C.2     1  UNL1        0.2685
      3 O         140.3403  142.8390  161.0041 O.2     1  UNL1       -0.2681
      4 H         139.3836  140.0873  162.9181 H       1  UNL1        0.1553
      5 C         139.5781  142.7998  163.4876 C.ar    1  UNL1        0.1475
      6 N         140.3669  142.4848  164.7239 N.ar    1  UNL1       -0.2379
      7 C         140.0749  143.2088  166.0047 C.ar    1  UNL1        0.1013
      8 C         138.9940  144.2479  166.0492 C.ar    1  UNL1        0.0220
      9 C         138.2051  144.5629  164.8128 C.ar    1  UNL1        0.0174
     10 C         138.4972  143.8389  163.5320 C.ar    1  UNL1        0.0640
     11 N         137.7084  144.1539  162.2957 N.pl3   1  UNL1       -0.3557
     12 H         136.9989  144.8359  162.3249 H       1  UNL1        0.1424
     13 H         137.9001  143.6786  161.4551 H       1  UNL1        0.1424
     14 C         140.8637  142.8938  167.2410 C.ar    1  UNL1        0.1262
     15 N         140.2561  143.1140  168.5947 N.ar    1  UNL1       -0.2400
     16 C         141.0449  142.7990  169.8310 C.ar    1  UNL1        0.0990
     17 C         142.4413  142.2639  169.7137 C.ar    1  UNL1        0.0230
     18 C         143.0489  142.0437  168.3601 C.ar    1  UNL1        0.0328
     19 C         142.2601  142.3587  167.1237 C.ar    1  UNL1        0.1591
     20 F         142.8676  142.1386  165.7701 F       1  UNL1       -0.2025
     21 C         141.3980  139.5131  160.4905 C.ar    1  UNL1       -0.0059
     22 C         141.6900  138.7890  159.2097 C.ar    1  UNL1        0.0176
     23 C         140.5683  138.4161  158.2863 C.ar    1  UNL1        0.0987
     24 N         139.1544  138.7673  158.6437 N.ar    1  UNL1       -0.2410
     25 C         138.8623  139.4914  159.9245 C.ar    1  UNL1        0.1132
     26 C         139.9842  139.8642  160.8479 C.ar    1  UNL1        0.0660
     27 C         143.9596  138.8391  164.9608 C.3     1  UNL1        0.0025
     28 C         143.8006  139.5490  163.6490 C.3     1  UNL1        0.0273
     29 C         142.6788  139.1761  162.7257 C.3     1  UNL1        0.0069
     30 C         142.5198  139.8859  161.4138 C.3     1  UNL1        0.0262
     31 C         143.4825  140.9686  161.0254 C.3     1  UNL1        0.0360
     32 C         144.6043  141.3414  161.9487 C.3     1  UNL1        0.1352
     33 O         145.5671  142.4241  161.5603 O.3     1  UNL1       -0.3821
     34 C         144.7633  140.6316  163.2605 C.3     1  UNL1        0.1128
     35 C         145.9209  141.5824  163.3368 C.3     1  UNL1        0.0318
     36 O         145.3244  140.2521  164.5989 O.3     1  UNL1       -0.3844
     37 H         146.2255  142.5389  162.2633 H       1  UNL1        0.2104
     38 H         146.1017  140.7997  164.7907 H       1  UNL1        0.2103
@<TRIPOS>BOND
     1    28    27    1
     2    28    29    1
     3    29    30    1
     4    30    21    1
     5    21    22   ar
     6    22    23   ar
     7    23    24   ar
     8    24    25   ar
     9    25    26   ar
    10    26     1    1
    11     1     2   am
    12     2     3    2
    13     2     5    1
    14     5     6   ar
    15     6     7   ar
    16     7    14    1
    17    14    15   ar
    18    15    16   ar
    19    16    17   ar
    20    17    18   ar
    21    18    19   ar
    22    19    20    1
    23     7     8   ar
    24     8     9   ar
    25     9    10   ar
    26    10    11    1
    27    30    31    1
    28    31    32    1
    29    32    33    1
    30    32    34    1
    31    34    35    1
    32    34    36    1
    33    34    28    1
    34    26    21   ar
    35    10     5   ar
    36    19    14   ar
    37     1     4    1
    38    11    12    1
    39    11    13    1
    40    33    37    1
    41    36    38    1
