@<TRIPOS>MOLECULE
*****
 35 39 0 0 0
SMALL
GASTEIGER

@<TRIPOS>ATOM
      1 C         140.6772  142.2962  161.8977 C.ar    1  UNL1        0.1458
      2 N         141.7178  143.0613  161.1349 N.ar    1  UNL1       -0.2249
      3 C         142.5785  142.3573  160.1282 C.ar    1  UNL1        0.1260
      4 C         143.6781  142.8447  159.2320 C.ar    1  UNL1        0.1212
      5 N         144.1778  141.6769  158.4343 N.ar    1  UNL1       -0.2265
      6 N         143.3872  140.4677  158.8375 N.ar    1  UNL1       -0.1586
      7 C         142.3987  140.8882  159.8844 C.ar    1  UNL1        0.1762
      8 C         141.3581  140.1231  160.6473 C.ar    1  UNL1        0.2829
      9 O         141.1783  138.6540  160.4035 O.2     1  UNL1       -0.2652
     10 N         140.4974  140.8272  161.6539 N.ar    1  UNL1       -0.2793
     11 C         141.7937  143.0082  164.5896 C.3     1  UNL1        0.0311
     12 C         140.3746  143.3563  164.2504 C.ar    1  UNL1       -0.0189
     13 C         139.5138  144.0604  165.2570 C.ar    1  UNL1       -0.0042
     14 C         138.0948  144.4085  164.9177 C.ar    1  UNL1       -0.0003
     15 C         137.5365  144.0525  163.5718 C.ar    1  UNL1        0.0001
     16 C         138.3973  143.3484  162.5651 C.ar    1  UNL1        0.0027
     17 C         139.8163  143.0003  162.9045 C.ar    1  UNL1        0.0303
     18 C         145.2756  141.7121  157.4126 C.ar    1  UNL1        0.0829
     19 C         145.2372  140.7799  156.2381 C.ar    1  UNL1        0.0198
     20 C         146.3351  140.8151  155.2165 C.ar    1  UNL1        0.0118
     21 C         147.4712  141.7825  155.3694 C.ar    1  UNL1        0.0685
     22 C         147.5095  142.7147  156.5439 C.ar    1  UNL1        0.0118
     23 C         146.4117  142.6795  157.5655 C.ar    1  UNL1        0.0198
     24 C         148.5689  141.8177  154.3478 C.1     1  UNL1        0.1004
     25 N         149.6666  141.8529  153.3262 N.1     1  UNL1       -0.1908
     26 C         139.4568  140.0621  162.4168 C.3     1  UNL1        0.1119
     27 C         139.5794  139.9073  163.9036 C.3     1  UNL1        0.0388
     28 C         138.3697  140.0648  164.7765 C.3     1  UNL1        0.0048
     29 C         138.4923  139.9099  166.2633 C.3     1  UNL1        0.0174
     30 C         139.8248  139.5976  166.8775 C.3     1  UNL1        0.0720
     31 N         141.0345  139.4402  166.0048 N.3     1  UNL1       -0.2739
     32 C         140.9118  139.5950  164.5178 C.3     1  UNL1        0.0739
     33 C         142.3669  139.1279  166.6190 C.3     1  UNL1        0.0576
     34 C         142.6720  139.5771  168.0172 C.3     1  UNL1        0.0173
     35 C         143.3942  138.3664  165.8348 C.3     1  UNL1        0.0173
@<TRIPOS>BOND
     1    11    12    1
     2    12    13   ar
     3    13    14   ar
     4    14    15   ar
     5    15    16   ar
     6    16    17   ar
     7    17     1    1
     8     1     2   ar
     9     2     3   ar
    10     3     4   ar
    11     4     5   ar
    12     5    18    1
    13    18    19   ar
    14    19    20   ar
    15    20    21   ar
    16    21    24    1
    17    24    25    3
    18    21    22   ar
    19    22    23   ar
    20     5     6   ar
    21     6     7   ar
    22     7     8   ar
    23     8     9    2
    24     8    10   ar
    25    10    26    1
    26    26    27    1
    27    27    28    1
    28    28    29    1
    29    29    30    1
    30    30    31    1
    31    31    33    1
    32    33    34    1
    33    33    35    1
    34    31    32    1
    35    17    12   ar
    36    10     1   ar
    37    32    27    1
    38     7     3   ar
    39    23    18   ar
@<TRIPOS>MOLECULE
*****
 35 39 0 0 0
SMALL
GASTEIGER

@<TRIPOS>ATOM
      1 C         141.0377  142.2374  162.0326 C.ar    1  UNL1        0.1458
      2 N         141.7590  143.0022  160.9626 N.ar    1  UNL1       -0.2249
      3 C         142.7206  142.2951  160.0542 C.ar    1  UNL1        0.1260
      4 C         143.5704  142.7816  158.9179 C.ar    1  UNL1        0.1212
      5 N         144.3360  141.6105  158.3772 N.ar    1  UNL1       -0.2265
      6 N         143.9593  140.4002  159.1793 N.ar    1  UNL1       -0.1586
      7 C         142.9609  140.8233  160.2157 C.ar    1  UNL1        0.1762
      8 C         142.2396  140.0586  161.2858 C.ar    1  UNL1        0.2829
      9 O         142.4800  138.5868  161.4473 O.2     1  UNL1       -0.2652
     10 N         141.2780  140.7657  162.1942 N.ar    1  UNL1       -0.2793
     11 C         142.0453  143.6333  164.4895 C.3     1  UNL1        0.0311
     12 C         140.5798  143.6425  164.1696 C.ar    1  UNL1       -0.0189
     13 C         139.6181  144.3495  165.0780 C.ar    1  UNL1       -0.0042
     14 C         138.1527  144.3587  164.7580 C.ar    1  UNL1       -0.0003
     15 C         137.6489  143.6607  163.5296 C.ar    1  UNL1        0.0001
     16 C         138.6105  142.9537  162.6211 C.ar    1  UNL1        0.0027
     17 C         140.0760  142.9445  162.9411 C.ar    1  UNL1        0.0303
     18 C         145.3076  141.6437  157.2349 C.ar    1  UNL1        0.0829
     19 C         145.0990  140.7524  156.0466 C.ar    1  UNL1        0.0198
     20 C         146.0707  140.7857  154.9044 C.ar    1  UNL1        0.0118
     21 C         147.2510  141.7103  154.9504 C.ar    1  UNL1        0.0685
     22 C         147.4596  142.6016  156.1387 C.ar    1  UNL1        0.0118
     23 C         146.4879  142.5683  157.2809 C.ar    1  UNL1        0.0198
     24 C         148.2227  141.7435  153.8081 C.1     1  UNL1        0.1004
     25 N         149.1943  141.7768  152.6659 N.1     1  UNL1       -0.1908
     26 C         140.5567  140.0009  163.2642 C.3     1  UNL1        0.1119
     27 C         141.1365  139.9148  164.6449 C.3     1  UNL1        0.0388
     28 C         142.4193  139.1719  164.8747 C.3     1  UNL1        0.0048
     29 C         142.9991  139.0857  166.2553 C.3     1  UNL1        0.0174
     30 C         142.2961  139.7424  167.4064 C.3     1  UNL1        0.0720
     31 N         141.0134  140.4852  167.1766 N.3     1  UNL1       -0.2739
     32 C         140.4336  140.5714  165.7959 C.3     1  UNL1        0.0739
     33 C         140.3105  141.1419  168.3276 C.3     1  UNL1        0.0576
     34 C         139.4184  140.3329  169.2217 C.3     1  UNL1        0.0173
     35 C         140.5000  142.6076  168.5844 C.3     1  UNL1        0.0173
@<TRIPOS>BOND
     1    11    12    1
     2    12    13   ar
     3    13    14   ar
     4    14    15   ar
     5    15    16   ar
     6    16    17   ar
     7    17     1    1
     8     1     2   ar
     9     2     3   ar
    10     3     4   ar
    11     4     5   ar
    12     5    18    1
    13    18    19   ar
    14    19    20   ar
    15    20    21   ar
    16    21    24    1
    17    24    25    3
    18    21    22   ar
    19    22    23   ar
    20     5     6   ar
    21     6     7   ar
    22     7     8   ar
    23     8     9    2
    24     8    10   ar
    25    10    26    1
    26    26    27    1
    27    27    28    1
    28    28    29    1
    29    29    30    1
    30    30    31    1
    31    31    33    1
    32    33    34    1
    33    33    35    1
    34    31    32    1
    35    17    12   ar
    36    10     1   ar
    37    32    27    1
    38     7     3   ar
    39    23    18   ar
@<TRIPOS>MOLECULE
*****
 35 39 0 0 0
SMALL
GASTEIGER

@<TRIPOS>ATOM
      1 C         140.9956  141.6154  162.2358 C.ar    1  UNL1        0.1458
      2 N         140.2868  141.0301  161.0504 N.ar    1  UNL1       -0.2249
      3 C         140.9762  140.0110  160.1924 C.ar    1  UNL1        0.1260
      4 C         140.5335  139.2641  158.9692 C.ar    1  UNL1        0.1212
      5 N         141.6580  138.3688  158.5406 N.ar    1  UNL1       -0.2265
      6 N         142.7957  138.5623  159.4988 N.ar    1  UNL1       -0.1586
      7 C         142.3743  139.5773  160.5197 C.ar    1  UNL1        0.1762
      8 C         143.0831  140.1627  161.7050 C.ar    1  UNL1        0.2829
      9 O         144.4812  139.7289  162.0323 O.2     1  UNL1       -0.2652
     10 N         142.3937  141.1817  162.5631 N.ar    1  UNL1       -0.2793
     11 C         139.3539  140.7333  164.5866 C.3     1  UNL1        0.0311
     12 C         139.4854  142.1935  164.2693 C.ar    1  UNL1       -0.0189
     13 C         138.7960  143.2126  165.1273 C.ar    1  UNL1       -0.0042
     14 C         138.9275  144.6727  164.8100 C.ar    1  UNL1       -0.0003
     15 C         139.7484  145.1138  163.6345 C.ar    1  UNL1        0.0001
     16 C         140.4377  144.0947  162.7765 C.ar    1  UNL1        0.0027
     17 C         140.3062  142.6346  163.0939 C.ar    1  UNL1        0.0303
     18 C         141.6468  137.4425  157.3608 C.ar    1  UNL1        0.0829
     19 C         142.8563  136.6123  157.0476 C.ar    1  UNL1        0.0198
     20 C         142.8450  135.6860  155.8678 C.ar    1  UNL1        0.0118
     21 C         141.6244  135.5898  155.0013 C.ar    1  UNL1        0.0685
     22 C         140.4150  136.4200  155.3145 C.ar    1  UNL1        0.0118
     23 C         140.4262  137.3463  156.4943 C.ar    1  UNL1        0.0198
     24 C         141.6132  134.6635  153.8215 C.1     1  UNL1        0.1004
     25 N         141.6020  133.7372  152.6418 N.1     1  UNL1       -0.1908
     26 C         143.1025  141.7671  163.7484 C.3     1  UNL1        0.1119
     27 C         142.9584  141.1296  165.0985 C.3     1  UNL1        0.0388
     28 C         142.9150  139.6352  165.2216 C.3     1  UNL1        0.0048
     29 C         142.7709  138.9978  166.5717 C.3     1  UNL1        0.0174
     30 C         142.6701  139.8547  167.7988 C.3     1  UNL1        0.0720
     31 N         142.7135  141.3490  167.6757 N.3     1  UNL1       -0.2739
     32 C         142.8576  141.9864  166.3256 C.3     1  UNL1        0.0739
     33 C         142.6127  142.2058  168.9028 C.3     1  UNL1        0.0576
     34 C         143.8112  142.3978  169.7840 C.3     1  UNL1        0.0173
     35 C         141.3132  142.8706  169.2486 C.3     1  UNL1        0.0173
@<TRIPOS>BOND
     1    11    12    1
     2    12    13   ar
     3    13    14   ar
     4    14    15   ar
     5    15    16   ar
     6    16    17   ar
     7    17     1    1
     8     1     2   ar
     9     2     3   ar
    10     3     4   ar
    11     4     5   ar
    12     5    18    1
    13    18    19   ar
    14    19    20   ar
    15    20    21   ar
    16    21    24    1
    17    24    25    3
    18    21    22   ar
    19    22    23   ar
    20     5     6   ar
    21     6     7   ar
    22     7     8   ar
    23     8     9    2
    24     8    10   ar
    25    10    26    1
    26    26    27    1
    27    27    28    1
    28    28    29    1
    29    29    30    1
    30    30    31    1
    31    31    33    1
    32    33    34    1
    33    33    35    1
    34    31    32    1
    35    17    12   ar
    36    10     1   ar
    37    32    27    1
    38     7     3   ar
    39    23    18   ar
@<TRIPOS>MOLECULE
*****
 35 39 0 0 0
SMALL
GASTEIGER

@<TRIPOS>ATOM
      1 C         142.1469  141.6394  162.1704 C.ar    1  UNL1        0.1458
      2 N         142.9242  140.9378  161.0963 N.ar    1  UNL1       -0.2249
      3 C         142.2359  139.9625  160.1880 C.ar    1  UNL1        0.1260
      4 C         142.7376  139.1264  159.0482 C.ar    1  UNL1        0.1212
      5 N         141.5822  138.3358  158.5096 N.ar    1  UNL1       -0.2265
      6 N         140.3664  138.6834  159.3165 N.ar    1  UNL1       -0.1586
      7 C         140.7704  139.6887  160.3539 C.ar    1  UNL1        0.1762
      8 C         139.9933  140.3903  161.4280 C.ar    1  UNL1        0.2829
      9 O         138.5278  140.1165  161.5939 O.2     1  UNL1       -0.2652
     10 N         140.6815  141.3656  162.3363 N.ar    1  UNL1       -0.2793
     11 C         143.6251  140.6525  164.5872 C.3     1  UNL1        0.0311
     12 C         143.5743  142.1213  164.2872 C.ar    1  UNL1       -0.0189
     13 C         144.2626  143.0966  165.1955 C.ar    1  UNL1       -0.0042
     14 C         144.2118  144.5654  164.8954 C.ar    1  UNL1       -0.0003
     15 C         143.4727  145.0589  163.6870 C.ar    1  UNL1        0.0001
     16 C         142.7844  144.0836  162.7787 C.ar    1  UNL1        0.0027
     17 C         142.8352  142.6148  163.0788 C.ar    1  UNL1        0.0303
     18 C         141.6335  137.3677  157.3650 C.ar    1  UNL1        0.0829
     19 C         142.8146  136.4569  157.2055 C.ar    1  UNL1        0.0198
     20 C         142.8658  135.4888  156.0608 C.ar    1  UNL1        0.0118
     21 C         141.7360  135.4314  155.0758 C.ar    1  UNL1        0.0685
     22 C         140.5549  136.3421  155.2354 C.ar    1  UNL1        0.0118
     23 C         140.5037  137.3102  156.3801 C.ar    1  UNL1        0.0198
     24 C         141.7873  134.4632  153.9313 C.1     1  UNL1        0.1004
     25 N         141.8387  133.4951  152.7868 N.1     1  UNL1       -0.1908
     26 C         139.9043  142.0672  163.4105 C.3     1  UNL1        0.1119
     27 C         139.8894  141.5176  164.8060 C.3     1  UNL1        0.0388
     28 C         139.2055  140.2133  165.0912 C.3     1  UNL1        0.0048
     29 C         139.1906  139.6637  166.4867 C.3     1  UNL1        0.0174
     30 C         139.8596  140.4183  167.5972 C.3     1  UNL1        0.0720
     31 N         140.5435  141.7225  167.3121 N.3     1  UNL1       -0.2739
     32 C         140.5583  142.2721  165.9164 C.3     1  UNL1        0.0739
     33 C         141.2124  142.4771  168.4225 C.3     1  UNL1        0.0576
     34 C         142.6936  142.3565  168.6253 C.3     1  UNL1        0.0173
     35 C         140.3999  143.3524  169.3303 C.3     1  UNL1        0.0173
@<TRIPOS>BOND
     1    11    12    1
     2    12    13   ar
     3    13    14   ar
     4    14    15   ar
     5    15    16   ar
     6    16    17   ar
     7    17     1    1
     8     1     2   ar
     9     2     3   ar
    10     3     4   ar
    11     4     5   ar
    12     5    18    1
    13    18    19   ar
    14    19    20   ar
    15    20    21   ar
    16    21    24    1
    17    24    25    3
    18    21    22   ar
    19    22    23   ar
    20     5     6   ar
    21     6     7   ar
    22     7     8   ar
    23     8     9    2
    24     8    10   ar
    25    10    26    1
    26    26    27    1
    27    27    28    1
    28    28    29    1
    29    29    30    1
    30    30    31    1
    31    31    33    1
    32    33    34    1
    33    33    35    1
    34    31    32    1
    35    17    12   ar
    36    10     1   ar
    37    32    27    1
    38     7     3   ar
    39    23    18   ar
@<TRIPOS>MOLECULE
*****
 35 39 0 0 0
SMALL
GASTEIGER

@<TRIPOS>ATOM
      1 C         141.5614  140.8472  162.2081 C.ar    1  UNL1        0.1458
      2 N         142.1667  140.1261  161.0403 N.ar    1  UNL1       -0.2249
      3 C         143.0597  140.8617  160.0856 C.ar    1  UNL1        0.1260
      4 C         143.7935  140.4195  158.8543 C.ar    1  UNL1        0.1212
      5 N         144.5346  141.6030  158.3064 N.ar    1  UNL1       -0.2265
      6 N         144.2589  142.7765  159.1991 N.ar    1  UNL1       -0.1586
      7 C         143.3473  142.3184  160.2987 C.ar    1  UNL1        0.1762
      8 C         142.7420  143.0394  161.4664 C.ar    1  UNL1        0.2829
      9 O         143.0297  144.4961  161.6795 O.2     1  UNL1       -0.2652
     10 N         141.8490  142.3038  162.4211 N.ar    1  UNL1       -0.2793
     11 C         138.5833  140.9552  161.8625 C.3     1  UNL1        0.0311
     12 C         139.1793  140.1656  162.9900 C.ar    1  UNL1       -0.0189
     13 C         138.2864  139.4299  163.9447 C.ar    1  UNL1       -0.0042
     14 C         138.8825  138.6403  165.0722 C.ar    1  UNL1       -0.0003
     15 C         140.3715  138.5863  165.2450 C.ar    1  UNL1        0.0001
     16 C         141.2644  139.3219  164.2903 C.ar    1  UNL1        0.0027
     17 C         140.6684  140.1116  163.1628 C.ar    1  UNL1        0.0303
     18 C         145.3997  141.6114  157.0810 C.ar    1  UNL1        0.0829
     19 C         145.0711  140.7141  155.9248 C.ar    1  UNL1        0.0198
     20 C         145.9362  140.7226  154.6994 C.ar    1  UNL1        0.0118
     21 C         147.1299  141.6283  154.6302 C.ar    1  UNL1        0.0685
     22 C         147.4585  142.5256  155.7865 C.ar    1  UNL1        0.0118
     23 C         146.5934  142.5171  157.0118 C.ar    1  UNL1        0.0198
     24 C         147.9949  141.6367  153.4048 C.1     1  UNL1        0.1004
     25 N         148.8600  141.6452  152.1795 N.1     1  UNL1       -0.1908
     26 C         141.2437  143.0249  163.5889 C.3     1  UNL1        0.1119
     27 C         141.7846  142.8023  164.9701 C.3     1  UNL1        0.0388
     28 C         143.2621  142.8767  165.2181 C.3     1  UNL1        0.0048
     29 C         143.8029  142.6541  166.5993 C.3     1  UNL1        0.0174
     30 C         142.8663  142.3570  167.7327 C.3     1  UNL1        0.0720
     31 N         141.3888  142.2827  167.4848 N.3     1  UNL1       -0.2739
     32 C         140.8479  142.5053  166.1035 C.3     1  UNL1        0.0739
     33 C         140.4522  141.9857  168.6181 C.3     1  UNL1        0.0576
     34 C         140.2169  143.0128  169.6855 C.3     1  UNL1        0.0173
     35 C         139.7508  140.6613  168.6840 C.3     1  UNL1        0.0173
@<TRIPOS>BOND
     1    11    12    1
     2    12    13   ar
     3    13    14   ar
     4    14    15   ar
     5    15    16   ar
     6    16    17   ar
     7    17     1    1
     8     1     2   ar
     9     2     3   ar
    10     3     4   ar
    11     4     5   ar
    12     5    18    1
    13    18    19   ar
    14    19    20   ar
    15    20    21   ar
    16    21    24    1
    17    24    25    3
    18    21    22   ar
    19    22    23   ar
    20     5     6   ar
    21     6     7   ar
    22     7     8   ar
    23     8     9    2
    24     8    10   ar
    25    10    26    1
    26    26    27    1
    27    27    28    1
    28    28    29    1
    29    29    30    1
    30    30    31    1
    31    31    33    1
    32    33    34    1
    33    33    35    1
    34    31    32    1
    35    17    12   ar
    36    10     1   ar
    37    32    27    1
    38     7     3   ar
    39    23    18   ar
@<TRIPOS>MOLECULE
*****
 35 39 0 0 0
SMALL
GASTEIGER

@<TRIPOS>ATOM
      1 C         140.3229  138.6407  157.8672 C.ar    1  UNL1        0.1458
      2 N         139.3579  138.8452  158.9973 N.ar    1  UNL1       -0.2249
      3 C         139.8639  138.9535  160.4052 C.ar    1  UNL1        0.1260
      4 C         139.1574  139.1550  161.7130 C.ar    1  UNL1        0.1212
      5 N         140.1917  139.1832  162.7990 N.ar    1  UNL1       -0.2265
      6 N         141.5374  138.9991  162.1625 N.ar    1  UNL1       -0.1586
      7 C         141.3348  138.8571  160.6830 C.ar    1  UNL1        0.1762
      8 C         142.2997  138.6526  159.5529 C.ar    1  UNL1        0.2829
      9 O         143.7706  138.5562  159.8307 O.2     1  UNL1       -0.2652
     10 N         141.7937  138.5443  158.1450 N.ar    1  UNL1       -0.2793
     11 C         140.4364  141.0213  156.0453 C.3     1  UNL1        0.0311
     12 C         139.8736  139.7228  155.5483 C.ar    1  UNL1       -0.0189
     13 C         139.3675  139.6145  154.1404 C.ar    1  UNL1       -0.0042
     14 C         138.8048  138.3159  153.6434 C.ar    1  UNL1       -0.0003
     15 C         138.7480  137.1256  154.5544 C.ar    1  UNL1        0.0001
     16 C         139.2540  137.2338  155.9623 C.ar    1  UNL1        0.0027
     17 C         139.8168  138.5324  156.4592 C.ar    1  UNL1        0.0303
     18 C         139.9268  139.3638  164.2643 C.ar    1  UNL1        0.0829
     19 C         138.6013  138.9642  164.8417 C.ar    1  UNL1        0.0198
     20 C         138.3365  139.1449  166.3071 C.ar    1  UNL1        0.0118
     21 C         139.3971  139.7251  167.1951 C.ar    1  UNL1        0.0685
     22 C         140.7226  140.1246  166.6177 C.ar    1  UNL1        0.0118
     23 C         140.9874  139.9440  165.1523 C.ar    1  UNL1        0.0198
     24 C         139.1322  139.9057  168.6604 C.1     1  UNL1        0.1004
     25 N         138.8672  140.0863  170.1256 N.1     1  UNL1       -0.1908
     26 C         142.7586  138.3397  157.0149 C.3     1  UNL1        0.1119
     27 C         142.7834  137.0342  156.2768 C.3     1  UNL1        0.0388
     28 C         142.4761  136.9964  154.8091 C.3     1  UNL1        0.0048
     29 C         142.5008  135.6908  154.0710 C.3     1  UNL1        0.0174
     30 C         142.8329  134.4229  154.8007 C.3     1  UNL1        0.0720
     31 N         143.1402  134.4607  156.2684 N.3     1  UNL1       -0.2739
     32 C         143.1155  135.7664  157.0064 C.3     1  UNL1        0.0739
     33 C         143.4723  133.1929  156.9979 C.3     1  UNL1        0.0576
     34 C         144.5503  133.1880  158.0408 C.3     1  UNL1        0.0173
     35 C         142.7262  131.9298  156.6845 C.3     1  UNL1        0.0173
@<TRIPOS>BOND
     1    11    12    1
     2    12    13   ar
     3    13    14   ar
     4    14    15   ar
     5    15    16   ar
     6    16    17   ar
     7    17     1    1
     8     1     2   ar
     9     2     3   ar
    10     3     4   ar
    11     4     5   ar
    12     5    18    1
    13    18    19   ar
    14    19    20   ar
    15    20    21   ar
    16    21    24    1
    17    24    25    3
    18    21    22   ar
    19    22    23   ar
    20     5     6   ar
    21     6     7   ar
    22     7     8   ar
    23     8     9    2
    24     8    10   ar
    25    10    26    1
    26    26    27    1
    27    27    28    1
    28    28    29    1
    29    29    30    1
    30    30    31    1
    31    31    33    1
    32    33    34    1
    33    33    35    1
    34    31    32    1
    35    17    12   ar
    36    10     1   ar
    37    32    27    1
    38     7     3   ar
    39    23    18   ar
@<TRIPOS>MOLECULE
*****
 35 39 0 0 0
SMALL
GASTEIGER

@<TRIPOS>ATOM
      1 C         141.4736  141.2291  160.6749 C.ar    1  UNL1        0.1458
      2 N         141.1036  140.6651  159.3351 N.ar    1  UNL1       -0.2249
      3 C         141.6461  139.3340  158.9061 C.ar    1  UNL1        0.1260
      4 C         141.4589  138.5305  157.6534 C.ar    1  UNL1        0.1212
      5 N         142.2556  137.2669  157.7899 N.ar    1  UNL1       -0.2265
      6 N         142.9352  137.2895  159.1269 N.ar    1  UNL1       -0.1586
      7 C         142.5585  138.5671  159.8168 C.ar    1  UNL1        0.1762
      8 C         142.9284  139.1312  161.1565 C.ar    1  UNL1        0.2829
      9 O         143.8408  138.3642  162.0672 O.2     1  UNL1       -0.2652
     10 N         142.3859  140.4622  161.5856 N.ar    1  UNL1       -0.2793
     11 C         138.7141  141.4206  161.8360 C.3     1  UNL1        0.0311
     12 C         139.5513  142.6559  161.6846 C.ar    1  UNL1       -0.0189
     13 C         139.0089  143.9870  162.1136 C.ar    1  UNL1       -0.0042
     14 C         139.8462  145.2223  161.9621 C.ar    1  UNL1       -0.0003
     15 C         141.2260  145.1265  161.3816 C.ar    1  UNL1        0.0001
     16 C         141.7684  143.7955  160.9525 C.ar    1  UNL1        0.0027
     17 C         140.9311  142.5602  161.1040 C.ar    1  UNL1        0.0303
     18 C         142.3552  136.1727  156.7686 C.ar    1  UNL1        0.0829
     19 C         141.3545  136.0938  155.6540 C.ar    1  UNL1        0.0198
     20 C         141.4542  134.9995  154.6328 C.ar    1  UNL1        0.0118
     21 C         142.5545  133.9844  154.7262 C.ar    1  UNL1        0.0685
     22 C         143.5552  134.0634  155.8408 C.ar    1  UNL1        0.0118
     23 C         143.4555  135.1576  156.8620 C.ar    1  UNL1        0.0198
     24 C         142.6542  132.8902  153.7050 C.1     1  UNL1        0.1004
     25 N         142.7538  131.7962  152.6838 N.1     1  UNL1       -0.1908
     26 C         142.7559  141.0263  162.9254 C.3     1  UNL1        0.1119
     27 C         141.7265  141.1127  164.0129 C.3     1  UNL1        0.0388
     28 C         141.5570  142.3872  164.7856 C.3     1  UNL1        0.0048
     29 C         140.5276  142.4737  165.8731 C.3     1  UNL1        0.0174
     30 C         139.6677  141.2856  166.1881 C.3     1  UNL1        0.0720
     31 N         139.8372  140.0111  165.4155 N.3     1  UNL1       -0.2739
     32 C         140.8667  139.9247  164.3279 C.3     1  UNL1        0.0739
     33 C         138.9773  138.8231  165.7305 C.3     1  UNL1        0.0576
     34 C         139.0331  137.6044  164.8579 C.3     1  UNL1        0.0173
     35 C         138.0616  138.8539  166.9182 C.3     1  UNL1        0.0173
@<TRIPOS>BOND
     1    11    12    1
     2    12    13   ar
     3    13    14   ar
     4    14    15   ar
     5    15    16   ar
     6    16    17   ar
     7    17     1    1
     8     1     2   ar
     9     2     3   ar
    10     3     4   ar
    11     4     5   ar
    12     5    18    1
    13    18    19   ar
    14    19    20   ar
    15    20    21   ar
    16    21    24    1
    17    24    25    3
    18    21    22   ar
    19    22    23   ar
    20     5     6   ar
    21     6     7   ar
    22     7     8   ar
    23     8     9    2
    24     8    10   ar
    25    10    26    1
    26    26    27    1
    27    27    28    1
    28    28    29    1
    29    29    30    1
    30    30    31    1
    31    31    33    1
    32    33    34    1
    33    33    35    1
    34    31    32    1
    35    17    12   ar
    36    10     1   ar
    37    32    27    1
    38     7     3   ar
    39    23    18   ar
@<TRIPOS>MOLECULE
*****
 35 39 0 0 0
SMALL
GASTEIGER

@<TRIPOS>ATOM
      1 C         140.0502  141.6713  161.8051 C.ar    1  UNL1        0.1458
      2 N         140.0992  141.7974  160.3111 N.ar    1  UNL1       -0.2249
      3 C         140.0615  143.1536  159.6714 C.ar    1  UNL1        0.1260
      4 C         140.0945  143.5874  158.2359 C.ar    1  UNL1        0.1212
      5 N         140.0281  145.0856  158.2028 N.ar    1  UNL1       -0.2265
      6 N         139.9541  145.5777  159.6179 N.ar    1  UNL1       -0.1586
      7 C         139.9747  144.3836  160.5255 C.ar    1  UNL1        0.1762
      8 C         139.9257  144.2574  162.0194 C.ar    1  UNL1        0.2829
      9 O         139.8389  145.4875  162.8735 O.2     1  UNL1       -0.2652
     10 N         139.9634  142.9012  162.6591 N.ar    1  UNL1       -0.2793
     11 C         142.6768  140.2852  162.2287 C.3     1  UNL1        0.0311
     12 C         141.4012  139.6219  162.6567 C.ar    1  UNL1       -0.0189
     13 C         141.4389  138.2658  163.2964 C.ar    1  UNL1       -0.0042
     14 C         140.1633  137.6026  163.7244 C.ar    1  UNL1       -0.0003
     15 C         138.8500  138.2957  163.5126 C.ar    1  UNL1        0.0001
     16 C         138.8123  139.6519  162.8728 C.ar    1  UNL1        0.0027
     17 C         140.0879  140.3150  162.4449 C.ar    1  UNL1        0.0303
     18 C         140.0347  145.9415  156.9710 C.ar    1  UNL1        0.0829
     19 C         140.8573  145.5395  155.7828 C.ar    1  UNL1        0.0198
     20 C         140.8637  146.3955  154.5510 C.ar    1  UNL1        0.0118
     21 C         140.0477  147.6533  154.5073 C.ar    1  UNL1        0.0685
     22 C         139.2251  148.0552  155.6955 C.ar    1  UNL1        0.0118
     23 C         139.2186  147.1993  156.9273 C.ar    1  UNL1        0.0198
     24 C         140.0542  148.5091  153.2754 C.1     1  UNL1        0.1004
     25 N         140.0607  149.3649  152.0436 N.1     1  UNL1       -0.1908
     26 C         139.9144  142.7751  164.1531 C.3     1  UNL1        0.1119
     27 C         141.1846  142.8040  164.9503 C.3     1  UNL1        0.0388
     28 C         142.4764  143.1843  164.2894 C.3     1  UNL1        0.0048
     29 C         143.7466  143.2132  165.0866 C.3     1  UNL1        0.0174
     30 C         143.7251  142.8618  166.5448 C.3     1  UNL1        0.0720
     31 N         142.4333  142.4816  167.2057 N.3     1  UNL1       -0.2739
     32 C         141.1631  142.4527  166.4084 C.3     1  UNL1        0.0739
     33 C         142.4119  142.1303  168.6638 C.3     1  UNL1        0.0576
     34 C         143.6746  142.1985  169.4704 C.3     1  UNL1        0.0173
     35 C         141.1274  141.7107  169.3153 C.3     1  UNL1        0.0173
@<TRIPOS>BOND
     1    11    12    1
     2    12    13   ar
     3    13    14   ar
     4    14    15   ar
     5    15    16   ar
     6    16    17   ar
     7    17     1    1
     8     1     2   ar
     9     2     3   ar
    10     3     4   ar
    11     4     5   ar
    12     5    18    1
    13    18    19   ar
    14    19    20   ar
    15    20    21   ar
    16    21    24    1
    17    24    25    3
    18    21    22   ar
    19    22    23   ar
    20     5     6   ar
    21     6     7   ar
    22     7     8   ar
    23     8     9    2
    24     8    10   ar
    25    10    26    1
    26    26    27    1
    27    27    28    1
    28    28    29    1
    29    29    30    1
    30    30    31    1
    31    31    33    1
    32    33    34    1
    33    33    35    1
    34    31    32    1
    35    17    12   ar
    36    10     1   ar
    37    32    27    1
    38     7     3   ar
    39    23    18   ar
@<TRIPOS>MOLECULE
*****
 35 39 0 0 0
SMALL
GASTEIGER

@<TRIPOS>ATOM
      1 C         141.1420  142.6973  161.7166 C.ar    1  UNL1        0.1458
      2 N         141.2875  142.3296  160.2696 N.ar    1  UNL1       -0.2249
      3 C         142.6364  142.3792  159.6153 C.ar    1  UNL1        0.1260
      4 C         143.0851  142.0756  158.2165 C.ar    1  UNL1        0.1212
      5 N         144.5656  142.3053  158.1447 N.ar    1  UNL1       -0.2265
      6 N         145.0320  142.7508  159.4989 N.ar    1  UNL1       -0.1586
      7 C         143.8396  142.7965  160.4078 C.ar    1  UNL1        0.1762
      8 C         143.6940  143.1642  161.8548 C.ar    1  UNL1        0.2829
      9 O         144.8972  143.5814  162.6473 O.2     1  UNL1       -0.2652
     10 N         142.3451  143.1146  162.5091 N.ar    1  UNL1       -0.2793
     11 C         139.9271  140.0543  162.4504 C.3     1  UNL1        0.0311
     12 C         139.1856  141.3262  162.7379 C.ar    1  UNL1       -0.0189
     13 C         137.8368  141.2767  163.3923 C.ar    1  UNL1       -0.0042
     14 C         137.0954  142.5486  163.6797 C.ar    1  UNL1       -0.0003
     15 C         137.7029  143.8701  163.3128 C.ar    1  UNL1        0.0001
     16 C         139.0517  143.9196  162.6585 C.ar    1  UNL1        0.0027
     17 C         139.7931  142.6477  162.3710 C.ar    1  UNL1        0.0303
     18 C         145.4285  142.1216  156.9315 C.ar    1  UNL1        0.0829
     19 C         144.8497  141.5253  155.6827 C.ar    1  UNL1        0.0198
     20 C         145.7126  141.3417  154.4696 C.ar    1  UNL1        0.0118
     21 C         147.1542  141.7544  154.5051 C.ar    1  UNL1        0.0685
     22 C         147.7331  142.3508  155.7538 C.ar    1  UNL1        0.0118
     23 C         146.8701  142.5344  156.9670 C.ar    1  UNL1        0.0198
     24 C         148.0171  141.5708  153.2919 C.1     1  UNL1        0.1004
     25 N         148.8799  141.3871  152.0788 N.1     1  UNL1       -0.1908
     26 C         142.1996  143.4823  163.9561 C.3     1  UNL1        0.1119
     27 C         141.7982  142.4406  164.9579 C.3     1  UNL1        0.0388
     28 C         140.8628  142.7959  166.0755 C.3     1  UNL1        0.0048
     29 C         140.4614  141.7543  167.0773 C.3     1  UNL1        0.0174
     30 C         140.9953  140.3572  166.9617 C.3     1  UNL1        0.0720
     31 N         141.9306  140.0019  165.8442 N.3     1  UNL1       -0.2739
     32 C         142.3321  141.0437  164.8423 C.3     1  UNL1        0.0739
     33 C         142.4645  138.6049  165.7285 C.3     1  UNL1        0.0576
     34 C         143.6561  138.1880  166.5385 C.3     1  UNL1        0.0173
     35 C         141.8067  137.6249  164.8027 C.3     1  UNL1        0.0173
@<TRIPOS>BOND
     1    11    12    1
     2    12    13   ar
     3    13    14   ar
     4    14    15   ar
     5    15    16   ar
     6    16    17   ar
     7    17     1    1
     8     1     2   ar
     9     2     3   ar
    10     3     4   ar
    11     4     5   ar
    12     5    18    1
    13    18    19   ar
    14    19    20   ar
    15    20    21   ar
    16    21    24    1
    17    24    25    3
    18    21    22   ar
    19    22    23   ar
    20     5     6   ar
    21     6     7   ar
    22     7     8   ar
    23     8     9    2
    24     8    10   ar
    25    10    26    1
    26    26    27    1
    27    27    28    1
    28    28    29    1
    29    29    30    1
    30    30    31    1
    31    31    33    1
    32    33    34    1
    33    33    35    1
    34    31    32    1
    35    17    12   ar
    36    10     1   ar
    37    32    27    1
    38     7     3   ar
    39    23    18   ar
