@<TRIPOS>MOLECULE
*****
 36 39 0 0 0
SMALL
GASTEIGER

@<TRIPOS>ATOM
      1 C         141.4962  138.8406  165.4721 C.3     1  UNL1        0.1412
      2 C         142.8576  139.0423  166.0687 C.3     1  UNL1        0.0451
      3 C         142.9942  139.6022  167.4535 C.3     1  UNL1        0.0297
      4 C         141.7693  139.9605  168.2418 C.ar    1  UNL1       -0.0237
      5 C         141.9059  140.5205  169.6266 C.ar    1  UNL1        0.0251
      6 C         140.6811  140.8788  170.4149 C.ar    1  UNL1        0.1398
      7 F         140.8176  141.4388  171.7998 F       1  UNL1       -0.2042
      8 C         139.3197  140.6772  169.8183 C.ar    1  UNL1        0.0293
      9 C         139.1831  140.1172  168.4334 C.ar    1  UNL1       -0.0022
     10 C         140.4079  139.7589  167.6452 C.ar    1  UNL1       -0.0229
     11 C         140.2714  139.1990  166.2603 C.3     1  UNL1        0.0588
     12 C         138.9100  138.9973  165.6637 C.3     1  UNL1        0.0074
     13 C         138.1580  140.1659  165.0992 C.3     1  UNL1        0.0005
     14 C         138.3006  137.6270  165.6317 C.3     1  UNL1        0.0005
     15 O         140.4318  138.4699  164.4824 O.3     1  UNL1       -0.4537
     16 C         140.5131  138.9706  163.0707 C.2     1  UNL1        0.3473
     17 O         140.7918  140.4201  162.8040 O.2     1  UNL1       -0.2473
     18 C         140.3156  138.0217  161.9258 C.3     1  UNL1        0.2520
     19 C         137.8148  138.7109  161.7811 C.3     1  UNL1        0.1748
     20 O         138.9546  137.8525  161.3184 O.3     1  UNL1       -0.3403
     21 C         142.3514  138.3535  164.3401 C.3     1  UNL1        0.0577
     22 C         143.7204  138.9303  164.1322 C.3     1  UNL1        0.0757
     23 N         144.1506  139.3665  162.7630 N.3     1  UNL1       -0.2714
     24 C         143.9884  138.4393  161.5951 C.3     1  UNL1        0.0896
     25 C         144.7429  140.7297  162.5619 C.3     1  UNL1        0.0728
     26 C         145.6495  141.3148  163.6041 C.3     1  UNL1        0.0303
     27 C         145.2958  142.6163  164.2606 C.3     1  UNL1        0.1252
     28 C         143.8573  143.0164  164.4057 C.2     1  UNL1        0.3513
     29 N         143.1267  144.0064  163.5477 N.2     1  UNL1       -0.0350
     30 C         141.7149  144.0986  164.0461 C.2     1  UNL1        0.2317
     31 C         140.5402  144.9116  163.5888 C.2     1  UNL1        0.0498
     32 C         139.2237  144.7917  164.2975 C.2     1  UNL1       -0.0002
     33 C         139.0818  143.8588  165.4635 C.2     1  UNL1       -0.0172
     34 C         140.2565  143.0458  165.9208 C.3     1  UNL1        0.1037
     35 C         141.5731  143.1657  165.2121 C.2     1  UNL1        0.2174
     36 N         142.8972  142.4969  165.4344 N.2     1  UNL1       -0.0389
@<TRIPOS>BOND
     1    19    20    1
     2    20    18    1
     3    18    16    1
     4    16    17    2
     5    16    15    1
     6    15     1    1
     7     1    21    1
     8    21    22    1
     9    22    23    1
    10    23    24    1
    11    23    25    1
    12    25    26    1
    13    26    27    1
    14    27    28    1
    15    28    29    2
    16    29    30    1
    17    30    31    2
    18    31    32    1
    19    32    33    2
    20    33    34    1
    21    34    35    1
    22    35    36    2
    23     1     2    1
    24     2     3    1
    25     3     4    1
    26     4     5   ar
    27     5     6   ar
    28     6     7    1
    29     6     8   ar
    30     8     9   ar
    31     9    10   ar
    32    10    11    1
    33    11    12    1
    34    12    13    1
    35    12    14    1
    36    11     1    1
    37    36    28    1
    38    10     4   ar
    39    35    30    1
@<TRIPOS>MOLECULE
*****
 36 39 0 0 0
SMALL
GASTEIGER

@<TRIPOS>ATOM
      1 C         143.4497  140.5335  164.5449 C.3     1  UNL1        0.1412
      2 C         143.3120  139.1085  164.9924 C.3     1  UNL1        0.0451
      3 C         142.9975  138.7996  166.4261 C.3     1  UNL1        0.0297
      4 C         142.8207  139.9159  167.4125 C.ar    1  UNL1       -0.0237
      5 C         142.5061  139.6071  168.8462 C.ar    1  UNL1        0.0251
      6 C         142.3293  140.7233  169.8325 C.ar    1  UNL1        0.1398
      7 F         142.0148  140.4145  171.2663 F       1  UNL1       -0.2042
      8 C         142.4671  142.1483  169.3850 C.ar    1  UNL1        0.0293
      9 C         142.7816  142.4572  167.9512 C.ar    1  UNL1       -0.0022
     10 C         142.9584  141.3409  166.9650 C.ar    1  UNL1       -0.0229
     11 C         143.2730  141.6497  165.5312 C.3     1  UNL1        0.0588
     12 C         143.4107  143.0748  165.0837 C.3     1  UNL1        0.0074
     13 C         142.3083  143.7252  164.3017 C.3     1  UNL1        0.0005
     14 C         144.6509  143.8494  165.4183 C.3     1  UNL1        0.0005
     15 O         143.6762  141.7132  163.6466 O.3     1  UNL1       -0.4537
     16 C         144.8950  141.7683  162.7738 C.2     1  UNL1        0.3473
     17 O         146.2417  141.4360  163.3446 O.2     1  UNL1       -0.2473
     18 C         144.7669  142.1555  161.3303 C.3     1  UNL1        0.2520
     19 C         142.6330  143.3896  160.5096 C.3     1  UNL1        0.1748
     20 O         144.0651  143.4268  160.9544 O.3     1  UNL1       -0.3403
     21 C         143.7052  139.8270  163.2466 C.3     1  UNL1        0.0577
     22 C         142.9232  138.5958  162.8962 C.3     1  UNL1        0.0757
     23 N         141.7398  138.6944  161.9798 N.3     1  UNL1       -0.2714
     24 C         141.8069  139.5633  160.7590 C.3     1  UNL1        0.0896
     25 C         140.4893  137.9240  162.2843 C.3     1  UNL1        0.0728
     26 C         140.2706  137.3617  163.6577 C.3     1  UNL1        0.0303
     27 C         139.1879  137.9200  164.5329 C.3     1  UNL1        0.1252
     28 C         139.0210  139.4049  164.6647 C.2     1  UNL1        0.3513
     29 N         139.7516  140.2921  165.6286 N.2     1  UNL1       -0.0350
     30 C         139.2763  141.6987  165.4153 C.2     1  UNL1        0.2317
     31 C         139.6440  142.9936  166.0773 C.2     1  UNL1        0.0498
     32 C         138.9874  144.2706  165.6435 C.2     1  UNL1       -0.0002
     33 C         137.9632  144.2528  164.5478 C.2     1  UNL1       -0.0172
     34 C         137.5956  142.9579  163.8858 C.3     1  UNL1        0.1037
     35 C         138.2521  141.6809  164.3195 C.2     1  UNL1        0.2174
     36 N         138.0943  140.2632  163.8556 N.2     1  UNL1       -0.0389
@<TRIPOS>BOND
     1    19    20    1
     2    20    18    1
     3    18    16    1
     4    16    17    2
     5    16    15    1
     6    15     1    1
     7     1    21    1
     8    21    22    1
     9    22    23    1
    10    23    24    1
    11    23    25    1
    12    25    26    1
    13    26    27    1
    14    27    28    1
    15    28    29    2
    16    29    30    1
    17    30    31    2
    18    31    32    1
    19    32    33    2
    20    33    34    1
    21    34    35    1
    22    35    36    2
    23     1     2    1
    24     2     3    1
    25     3     4    1
    26     4     5   ar
    27     5     6   ar
    28     6     7    1
    29     6     8   ar
    30     8     9   ar
    31     9    10   ar
    32    10    11    1
    33    11    12    1
    34    12    13    1
    35    12    14    1
    36    11     1    1
    37    36    28    1
    38    10     4   ar
    39    35    30    1
@<TRIPOS>MOLECULE
*****
 36 39 0 0 0
SMALL
GASTEIGER

@<TRIPOS>ATOM
      1 C         139.4726  141.1234  164.6393 C.3     1  UNL1        0.1412
      2 C         139.4215  139.7349  165.2044 C.3     1  UNL1        0.0451
      3 C         139.6395  139.5140  166.6719 C.3     1  UNL1        0.0297
      4 C         139.9086  140.6816  167.5744 C.ar    1  UNL1       -0.0237
      5 C         140.1267  140.4607  169.0419 C.ar    1  UNL1        0.0251
      6 C         140.3958  141.6283  169.9442 C.ar    1  UNL1        0.1398
      7 F         140.6138  141.4074  171.4118 F       1  UNL1       -0.2042
      8 C         140.4468  143.0168  169.3790 C.ar    1  UNL1        0.0293
      9 C         140.2288  143.2377  167.9115 C.ar    1  UNL1       -0.0022
     10 C         139.9597  142.0701  167.0092 C.ar    1  UNL1       -0.0229
     11 C         139.7417  142.2910  165.5416 C.3     1  UNL1        0.0588
     12 C         139.7927  143.6795  164.9764 C.3     1  UNL1        0.0074
     13 C         141.0271  144.1570  164.2705 C.3     1  UNL1        0.0005
     14 C         138.6094  144.5905  165.1172 C.3     1  UNL1        0.0005
     15 O         139.4244  142.2412  163.6403 O.3     1  UNL1       -0.4537
     16 C         138.2895  142.3252  162.6628 C.2     1  UNL1        0.3473
     17 O         136.9271  141.8325  163.0514 O.2     1  UNL1       -0.2473
     18 C         138.5173  142.9018  161.2969 C.3     1  UNL1        0.2520
     19 C         140.3350  144.6124  160.5760 C.3     1  UNL1        0.1748
     20 O         138.9799  144.3210  161.1496 O.3     1  UNL1       -0.3403
     21 C         139.1867  140.3440  163.3900 C.3     1  UNL1        0.0577
     22 C         140.0226  139.1473  163.0447 C.3     1  UNL1        0.0757
     23 N         140.1869  138.7353  161.6118 N.3     1  UNL1       -0.2714
     24 C         139.0375  138.1167  160.8727 C.3     1  UNL1        0.0896
     25 C         141.5006  138.9419  160.9180 C.3     1  UNL1        0.0728
     26 C         142.5543  137.8756  160.9741 C.3     1  UNL1        0.0303
     27 C         143.7544  138.0529  161.8562 C.3     1  UNL1        0.1252
     28 C         143.8231  139.2130  162.8048 C.2     1  UNL1        0.3513
     29 N         143.2237  139.2651  164.1788 N.2     1  UNL1       -0.0350
     30 C         143.5335  140.6089  164.7689 C.2     1  UNL1        0.2317
     31 C         143.1976  141.2243  166.0950 C.2     1  UNL1        0.0498
     32 C         143.6526  142.6181  166.4117 C.2     1  UNL1       -0.0002
     33 C         144.4434  143.3965  165.4024 C.2     1  UNL1       -0.0172
     34 C         144.7793  142.7810  164.0763 C.3     1  UNL1        0.1037
     35 C         144.3243  141.3872  163.7596 C.2     1  UNL1        0.2174
     36 N         144.5033  140.5245  162.5457 N.2     1  UNL1       -0.0389
@<TRIPOS>BOND
     1    19    20    1
     2    20    18    1
     3    18    16    1
     4    16    17    2
     5    16    15    1
     6    15     1    1
     7     1    21    1
     8    21    22    1
     9    22    23    1
    10    23    24    1
    11    23    25    1
    12    25    26    1
    13    26    27    1
    14    27    28    1
    15    28    29    2
    16    29    30    1
    17    30    31    2
    18    31    32    1
    19    32    33    2
    20    33    34    1
    21    34    35    1
    22    35    36    2
    23     1     2    1
    24     2     3    1
    25     3     4    1
    26     4     5   ar
    27     5     6   ar
    28     6     7    1
    29     6     8   ar
    30     8     9   ar
    31     9    10   ar
    32    10    11    1
    33    11    12    1
    34    12    13    1
    35    12    14    1
    36    11     1    1
    37    36    28    1
    38    10     4   ar
    39    35    30    1
@<TRIPOS>MOLECULE
*****
 36 39 0 0 0
SMALL
GASTEIGER

@<TRIPOS>ATOM
      1 C         141.7721  143.0011  164.5094 C.3     1  UNL1        0.1412
      2 C         143.2015  142.7048  164.8543 C.3     1  UNL1        0.0451
      3 C         143.5866  142.4201  166.2758 C.3     1  UNL1        0.0297
      4 C         142.5422  142.4316  167.3524 C.ar    1  UNL1       -0.0237
      5 C         142.9272  142.1469  168.7739 C.ar    1  UNL1        0.0251
      6 C         141.8829  142.1585  169.8505 C.ar    1  UNL1        0.1398
      7 F         142.2679  141.8738  171.2721 F       1  UNL1       -0.2042
      8 C         140.4534  142.4547  169.5056 C.ar    1  UNL1        0.0293
      9 C         140.0684  142.7394  168.0842 C.ar    1  UNL1       -0.0022
     10 C         141.1127  142.7279  167.0076 C.ar    1  UNL1       -0.0229
     11 C         140.7277  143.0126  165.5860 C.3     1  UNL1        0.0588
     12 C         139.2983  143.3089  165.2411 C.3     1  UNL1        0.0074
     13 C         138.4060  142.2138  164.7366 C.3     1  UNL1        0.0005
     14 C         138.7611  144.7003  165.4008 C.3     1  UNL1        0.0005
     15 O         140.5591  143.3334  163.6921 O.3     1  UNL1       -0.4537
     16 C         140.5829  144.5062  162.7571 C.2     1  UNL1        0.3473
     17 O         141.3751  145.7302  163.1095 O.2     1  UNL1       -0.2473
     18 C         139.8145  144.4549  161.4698 C.3     1  UNL1        0.2520
     19 C         138.2171  142.4590  161.0069 C.3     1  UNL1        0.1748
     20 O         138.4303  143.8776  161.4453 O.3     1  UNL1       -0.3403
     21 C         142.3952  143.1049  163.1489 C.3     1  UNL1        0.0577
     22 C         143.3847  142.0725  162.6963 C.3     1  UNL1        0.0757
     23 N         143.0646  141.1881  161.5278 N.3     1  UNL1       -0.2714
     24 C         141.7052  141.2428  160.8961 C.3     1  UNL1        0.0896
     25 C         144.1038  140.2491  160.9911 C.3     1  UNL1        0.0728
     26 C         143.7415  138.8266  160.6823 C.3     1  UNL1        0.0303
     27 C         143.5312  137.8470  161.7986 C.3     1  UNL1        0.1252
     28 C         142.4626  138.0942  162.8220 C.2     1  UNL1        0.3513
     29 N         142.6408  138.8123  164.1269 N.2     1  UNL1       -0.0350
     30 C         141.3166  138.8286  164.8314 C.2     1  UNL1        0.2317
     31 C         140.8894  139.3966  166.1523 C.2     1  UNL1        0.0498
     32 C         139.4659  139.2568  166.6038 C.2     1  UNL1       -0.0002
     33 C         138.4694  138.5489  165.7344 C.2     1  UNL1       -0.0172
     34 C         138.8966  137.9808  164.4134 C.3     1  UNL1        0.1037
     35 C         140.3201  138.1207  163.9619 C.2     1  UNL1        0.2174
     36 N         141.0284  137.6668  162.7201 N.2     1  UNL1       -0.0389
@<TRIPOS>BOND
     1    19    20    1
     2    20    18    1
     3    18    16    1
     4    16    17    2
     5    16    15    1
     6    15     1    1
     7     1    21    1
     8    21    22    1
     9    22    23    1
    10    23    24    1
    11    23    25    1
    12    25    26    1
    13    26    27    1
    14    27    28    1
    15    28    29    2
    16    29    30    1
    17    30    31    2
    18    31    32    1
    19    32    33    2
    20    33    34    1
    21    34    35    1
    22    35    36    2
    23     1     2    1
    24     2     3    1
    25     3     4    1
    26     4     5   ar
    27     5     6   ar
    28     6     7    1
    29     6     8   ar
    30     8     9   ar
    31     9    10   ar
    32    10    11    1
    33    11    12    1
    34    12    13    1
    35    12    14    1
    36    11     1    1
    37    36    28    1
    38    10     4   ar
    39    35    30    1
@<TRIPOS>MOLECULE
*****
 36 39 0 0 0
SMALL
GASTEIGER

@<TRIPOS>ATOM
      1 C         141.8968  141.3281  164.7124 C.3     1  UNL1        0.1412
      2 C         141.1962  142.5539  165.2189 C.3     1  UNL1        0.0451
      3 C         140.9279  142.7120  166.6862 C.3     1  UNL1        0.0297
      4 C         141.3602  141.6442  167.6470 C.ar    1  UNL1       -0.0237
      5 C         141.0919  141.8023  169.1143 C.ar    1  UNL1        0.0251
      6 C         141.5242  140.7345  170.0750 C.ar    1  UNL1        0.1398
      7 F         141.2559  140.8925  171.5424 F       1  UNL1       -0.2042
      8 C         142.2248  139.5088  169.5685 C.ar    1  UNL1        0.0293
      9 C         142.4931  139.3507  168.1012 C.ar    1  UNL1       -0.0022
     10 C         142.0608  140.4184  167.1405 C.ar    1  UNL1       -0.0229
     11 C         142.3291  140.2604  165.6731 C.3     1  UNL1        0.0588
     12 C         143.0297  139.0346  165.1665 C.3     1  UNL1        0.0074
     13 C         144.5282  138.9689  165.1772 C.3     1  UNL1        0.0005
     14 C         142.2317  137.8746  164.6491 C.3     1  UNL1        0.0005
     15 O         142.5227  140.3559  163.7569 O.3     1  UNL1       -0.4537
     16 C         143.4214  140.8523  162.6632 C.2     1  UNL1        0.3473
     17 O         144.5508  141.7851  162.9859 O.2     1  UNL1       -0.2473
     18 C         143.1906  140.4157  161.2467 C.3     1  UNL1        0.2520
     19 C         143.9585  137.9374  161.3820 C.3     1  UNL1        0.1748
     20 O         142.9616  138.9660  160.9367 O.3     1  UNL1       -0.3403
     21 C         141.6818  142.0582  163.4198 C.3     1  UNL1        0.0577
     22 C         141.4530  143.5407  163.4247 C.3     1  UNL1        0.0757
     23 N         141.1121  144.2513  162.1485 N.3     1  UNL1       -0.2714
     24 C         142.0325  144.1559  160.9680 C.3     1  UNL1        0.0896
     25 C         139.8506  145.0572  162.0528 C.3     1  UNL1        0.0728
     26 C         138.7836  144.9067  163.0964 C.3     1  UNL1        0.0303
     27 C         137.7090  143.8741  162.9267 C.3     1  UNL1        0.1252
     28 C         137.9482  142.4623  163.3737 C.2     1  UNL1        0.3513
     29 N         137.9254  141.9703  164.7906 N.2     1  UNL1       -0.0350
     30 C         138.2153  140.4986  164.7748 C.2     1  UNL1        0.2317
     31 C         138.3215  139.4848  165.8752 C.2     1  UNL1        0.0498
     32 C         138.6296  138.0535  165.5491 C.2     1  UNL1       -0.0002
     33 C         138.8315  137.6360  164.1227 C.2     1  UNL1       -0.0172
     34 C         138.7253  138.6498  163.0222 C.3     1  UNL1        0.1037
     35 C         138.4172  140.0811  163.3483 C.2     1  UNL1        0.2174
     36 N         138.2521  141.2947  162.4824 N.2     1  UNL1       -0.0389
@<TRIPOS>BOND
     1    19    20    1
     2    20    18    1
     3    18    16    1
     4    16    17    2
     5    16    15    1
     6    15     1    1
     7     1    21    1
     8    21    22    1
     9    22    23    1
    10    23    24    1
    11    23    25    1
    12    25    26    1
    13    26    27    1
    14    27    28    1
    15    28    29    2
    16    29    30    1
    17    30    31    2
    18    31    32    1
    19    32    33    2
    20    33    34    1
    21    34    35    1
    22    35    36    2
    23     1     2    1
    24     2     3    1
    25     3     4    1
    26     4     5   ar
    27     5     6   ar
    28     6     7    1
    29     6     8   ar
    30     8     9   ar
    31     9    10   ar
    32    10    11    1
    33    11    12    1
    34    12    13    1
    35    12    14    1
    36    11     1    1
    37    36    28    1
    38    10     4   ar
    39    35    30    1
@<TRIPOS>MOLECULE
*****
 36 39 0 0 0
SMALL
GASTEIGER

@<TRIPOS>ATOM
      1 C         139.9364  142.9724  162.9484 C.3     1  UNL1        0.1412
      2 C         138.7899  142.1460  163.4511 C.3     1  UNL1        0.0451
      3 C         138.9015  141.4279  164.7633 C.3     1  UNL1        0.0297
      4 C         140.1596  141.5362  165.5729 C.ar    1  UNL1       -0.0237
      5 C         140.2712  140.8181  166.8851 C.ar    1  UNL1        0.0251
      6 C         141.5293  140.9264  167.6946 C.ar    1  UNL1        0.1398
      7 F         141.6410  140.2083  169.0068 F       1  UNL1       -0.2042
      8 C         142.6758  141.7528  167.1919 C.ar    1  UNL1        0.0293
      9 C         142.5642  142.4709  165.8798 C.ar    1  UNL1       -0.0022
     10 C         141.3061  142.3626  165.0702 C.ar    1  UNL1       -0.0229
     11 C         141.1945  143.0807  163.7580 C.3     1  UNL1        0.0588
     12 C         142.3410  143.9071  163.2553 C.3     1  UNL1        0.0074
     13 C         142.5412  145.3024  163.7680 C.3     1  UNL1        0.0005
     14 C         143.2872  143.3380  162.2400 C.3     1  UNL1        0.0005
     15 O         140.7432  143.8693  162.0572 O.3     1  UNL1       -0.4537
     16 C         140.0783  145.0025  161.3332 C.2     1  UNL1        0.3473
     17 O         139.1028  145.8840  162.0552 O.2     1  UNL1       -0.2473
     18 C         140.3889  145.2539  159.8874 C.3     1  UNL1        0.2520
     19 C         142.3478  144.1723  158.5674 C.3     1  UNL1        0.1748
     20 O         141.8141  145.2844  159.4209 O.3     1  UNL1       -0.3403
     21 C         138.9584  143.1756  161.8293 C.3     1  UNL1        0.0577
     22 C         138.0771  142.0446  161.3887 C.3     1  UNL1        0.0757
     23 N         138.5454  141.1008  160.3211 N.3     1  UNL1       -0.2714
     24 C         139.4037  141.6043  159.1987 C.3     1  UNL1        0.0896
     25 C         138.1553  139.6535  160.3759 C.3     1  UNL1        0.0728
     26 C         137.6990  139.0483  161.6704 C.3     1  UNL1        0.0303
     27 C         138.5019  137.9553  162.3114 C.3     1  UNL1        0.1252
     28 C         139.8336  138.2660  162.9281 C.2     1  UNL1        0.3513
     29 N         140.8922  139.1516  162.3406 N.2     1  UNL1       -0.0350
     30 C         142.0532  139.1785  163.2899 C.2     1  UNL1        0.2317
     31 C         143.3770  139.8820  163.2369 C.2     1  UNL1        0.0498
     32 C         144.3597  139.7165  164.3579 C.2     1  UNL1       -0.0002
     33 C         144.0187  138.8475  165.5321 C.2     1  UNL1       -0.0172
     34 C         142.6950  138.1440  165.5851 C.3     1  UNL1        0.1037
     35 C         141.7123  138.3095  164.4641 C.2     1  UNL1        0.2174
     36 N         140.3404  137.7455  164.2404 N.2     1  UNL1       -0.0389
@<TRIPOS>BOND
     1    19    20    1
     2    20    18    1
     3    18    16    1
     4    16    17    2
     5    16    15    1
     6    15     1    1
     7     1    21    1
     8    21    22    1
     9    22    23    1
    10    23    24    1
    11    23    25    1
    12    25    26    1
    13    26    27    1
    14    27    28    1
    15    28    29    2
    16    29    30    1
    17    30    31    2
    18    31    32    1
    19    32    33    2
    20    33    34    1
    21    34    35    1
    22    35    36    2
    23     1     2    1
    24     2     3    1
    25     3     4    1
    26     4     5   ar
    27     5     6   ar
    28     6     7    1
    29     6     8   ar
    30     8     9   ar
    31     9    10   ar
    32    10    11    1
    33    11    12    1
    34    12    13    1
    35    12    14    1
    36    11     1    1
    37    36    28    1
    38    10     4   ar
    39    35    30    1
@<TRIPOS>MOLECULE
*****
 36 39 0 0 0
SMALL
GASTEIGER

@<TRIPOS>ATOM
      1 C         143.1463  140.5648  164.1099 C.3     1  UNL1        0.1412
      2 C         143.0214  139.1057  164.4346 C.3     1  UNL1        0.0451
      3 C         142.8593  138.6655  165.8594 C.3     1  UNL1        0.0297
      4 C         142.8222  139.6845  166.9596 C.ar    1  UNL1       -0.0237
      5 C         142.6602  139.2444  168.3843 C.ar    1  UNL1        0.0251
      6 C         142.6231  140.2634  169.4844 C.ar    1  UNL1        0.1398
      7 F         142.4611  139.8233  170.9093 F       1  UNL1       -0.2042
      8 C         142.7480  141.7225  169.1597 C.ar    1  UNL1        0.0293
      9 C         142.9101  142.1626  167.7350 C.ar    1  UNL1       -0.0022
     10 C         142.9472  141.1436  166.6349 C.ar    1  UNL1       -0.0229
     11 C         143.1092  141.5837  165.2100 C.3     1  UNL1        0.0588
     12 C         143.2341  143.0428  164.8854 C.3     1  UNL1        0.0074
     13 C         142.0568  143.7923  164.3357 C.3     1  UNL1        0.0005
     14 C         144.5364  143.7525  165.1105 C.3     1  UNL1        0.0005
     15 O         143.3030  141.8215  163.3063 O.3     1  UNL1       -0.4537
     16 C         144.4925  141.9945  162.4089 C.2     1  UNL1        0.3473
     17 O         145.8152  141.4015  162.7943 O.2     1  UNL1       -0.2473
     18 C         144.3591  142.7606  161.1261 C.3     1  UNL1        0.2520
     19 C         144.0288  141.2243  159.0572 C.3     1  UNL1        0.1748
     20 O         143.4869  142.2339  160.0253 O.3     1  UNL1       -0.3403
     21 C         143.2378  139.9822  162.7307 C.3     1  UNL1        0.0577
     22 C         142.2478  138.9466  162.2867 C.3     1  UNL1        0.0757
     23 N         142.0798  138.6468  160.8266 N.3     1  UNL1       -0.2714
     24 C         142.9489  137.6172  160.1674 C.3     1  UNL1        0.0896
     25 C         141.0426  139.3768  160.0257 C.3     1  UNL1        0.0728
     26 C         139.7036  138.7464  159.7806 C.3     1  UNL1        0.0303
     27 C         138.5243  139.1409  160.6194 C.3     1  UNL1        0.1252
     28 C         138.6961  139.3781  162.0906 C.2     1  UNL1        0.3513
     29 N         138.5077  138.3597  163.1757 N.2     1  UNL1       -0.0350
     30 C         138.7816  139.0275  164.4906 C.2     1  UNL1        0.2317
     31 C         138.7516  138.5174  165.9009 C.2     1  UNL1        0.0498
     32 C         139.0792  139.4382  167.0387 C.2     1  UNL1       -0.0002
     33 C         139.4368  140.8693  166.7663 C.2     1  UNL1       -0.0172
     34 C         139.4668  141.3794  165.3560 C.3     1  UNL1        0.1037
     35 C         139.1392  140.4585  164.2182 C.2     1  UNL1        0.2174
     36 N         139.0864  140.6752  162.7349 N.2     1  UNL1       -0.0389
@<TRIPOS>BOND
     1    19    20    1
     2    20    18    1
     3    18    16    1
     4    16    17    2
     5    16    15    1
     6    15     1    1
     7     1    21    1
     8    21    22    1
     9    22    23    1
    10    23    24    1
    11    23    25    1
    12    25    26    1
    13    26    27    1
    14    27    28    1
    15    28    29    2
    16    29    30    1
    17    30    31    2
    18    31    32    1
    19    32    33    2
    20    33    34    1
    21    34    35    1
    22    35    36    2
    23     1     2    1
    24     2     3    1
    25     3     4    1
    26     4     5   ar
    27     5     6   ar
    28     6     7    1
    29     6     8   ar
    30     8     9   ar
    31     9    10   ar
    32    10    11    1
    33    11    12    1
    34    12    13    1
    35    12    14    1
    36    11     1    1
    37    36    28    1
    38    10     4   ar
    39    35    30    1
@<TRIPOS>MOLECULE
*****
 36 39 0 0 0
SMALL
GASTEIGER

@<TRIPOS>ATOM
      1 C         140.4207  141.6454  162.1949 C.3     1  UNL1        0.1412
      2 C         140.7933  140.3079  161.6271 C.3     1  UNL1        0.0451
      3 C         140.3925  139.0516  162.3419 C.3     1  UNL1        0.0297
      4 C         139.6190  139.1327  163.6246 C.ar    1  UNL1       -0.0237
      5 C         139.2182  137.8765  164.3395 C.ar    1  UNL1        0.0251
      6 C         138.4448  137.9576  165.6221 C.ar    1  UNL1        0.1398
      7 F         138.0439  136.7013  166.3370 F       1  UNL1       -0.2042
      8 C         138.0721  139.2951  166.1899 C.ar    1  UNL1        0.0293
      9 C         138.4729  140.5514  165.4750 C.ar    1  UNL1       -0.0022
     10 C         139.2464  140.4702  164.1924 C.ar    1  UNL1       -0.0229
     11 C         139.6472  141.7265  163.4775 C.3     1  UNL1        0.0588
     12 C         139.2746  143.0640  164.0453 C.3     1  UNL1        0.0074
     13 C         140.2721  143.8401  164.8532 C.3     1  UNL1        0.0005
     14 C         137.9044  143.6253  163.8052 C.3     1  UNL1        0.0005
     15 O         140.3024  143.1342  162.3340 O.3     1  UNL1       -0.4537
     16 C         139.8198  143.9595  161.1781 C.2     1  UNL1        0.3473
     17 O         138.7162  143.4480  160.3004 O.2     1  UNL1       -0.2473
     18 C         140.4410  145.2963  160.8999 C.3     1  UNL1        0.2520
     19 C         141.3096  145.4095  158.4540 C.3     1  UNL1        0.1748
     20 O         141.5795  145.4068  159.9295 O.3     1  UNL1       -0.3403
     21 C         141.1530  142.0813  160.9606 C.3     1  UNL1        0.0577
     22 C         141.7856  141.0591  160.0634 C.3     1  UNL1        0.0757
     23 N         143.0661  141.3771  159.3498 N.3     1  UNL1       -0.2714
     24 C         143.6407  140.3991  158.3684 C.3     1  UNL1        0.0896
     25 C         143.7719  142.6733  159.6177 C.3     1  UNL1        0.0728
     26 C         144.8855  142.7273  160.6213 C.3     1  UNL1        0.0303
     27 C         144.6077  143.1724  162.0266 C.3     1  UNL1        0.1252
     28 C         144.0675  142.1963  163.0294 C.2     1  UNL1        0.3513
     29 N         143.3499  142.5439  164.2999 N.2     1  UNL1       -0.0350
     30 C         142.9890  141.2637  164.9935 C.2     1  UNL1        0.2317
     31 C         142.2739  140.9878  166.2829 C.2     1  UNL1        0.0498
     32 C         142.0534  139.5732  166.7304 C.2     1  UNL1       -0.0002
     33 C         142.5478  138.4345  165.8885 C.2     1  UNL1       -0.0172
     34 C         143.2629  138.7104  164.5990 C.3     1  UNL1        0.1037
     35 C         143.4835  140.1250  164.1516 C.2     1  UNL1        0.2174
     36 N         144.1500  140.7014  162.9377 N.2     1  UNL1       -0.0389
@<TRIPOS>BOND
     1    19    20    1
     2    20    18    1
     3    18    16    1
     4    16    17    2
     5    16    15    1
     6    15     1    1
     7     1    21    1
     8    21    22    1
     9    22    23    1
    10    23    24    1
    11    23    25    1
    12    25    26    1
    13    26    27    1
    14    27    28    1
    15    28    29    2
    16    29    30    1
    17    30    31    2
    18    31    32    1
    19    32    33    2
    20    33    34    1
    21    34    35    1
    22    35    36    2
    23     1     2    1
    24     2     3    1
    25     3     4    1
    26     4     5   ar
    27     5     6   ar
    28     6     7    1
    29     6     8   ar
    30     8     9   ar
    31     9    10   ar
    32    10    11    1
    33    11    12    1
    34    12    13    1
    35    12    14    1
    36    11     1    1
    37    36    28    1
    38    10     4   ar
    39    35    30    1
@<TRIPOS>MOLECULE
*****
 36 39 0 0 0
SMALL
GASTEIGER

@<TRIPOS>ATOM
      1 C         140.4535  141.3548  164.0240 C.3     1  UNL1        0.1412
      2 C         141.3635  142.5461  163.9730 C.3     1  UNL1        0.0451
      3 C         142.2561  142.8584  165.1373 C.3     1  UNL1        0.0297
      4 C         142.2386  141.9794  166.3527 C.ar    1  UNL1       -0.0237
      5 C         143.1312  142.2917  167.5171 C.ar    1  UNL1        0.0251
      6 C         143.1137  141.4127  168.7324 C.ar    1  UNL1        0.1398
      7 F         144.0063  141.7251  169.8968 F       1  UNL1       -0.2042
      8 C         142.2037  140.2214  168.7833 C.ar    1  UNL1        0.0293
      9 C         141.3111  139.9091  167.6190 C.ar    1  UNL1       -0.0022
     10 C         141.3286  140.7881  166.4037 C.ar    1  UNL1       -0.0229
     11 C         140.4360  140.4758  165.2393 C.3     1  UNL1        0.0588
     12 C         139.5260  139.2844  165.2902 C.3     1  UNL1        0.0074
     13 C         139.9477  137.9909  164.6586 C.3     1  UNL1        0.0005
     14 C         138.1942  139.3867  165.9729 C.3     1  UNL1        0.0005
     15 O         139.4256  140.3472  163.6020 O.3     1  UNL1       -0.4537
     16 C         138.1545  140.8015  162.9475 C.2     1  UNL1        0.3473
     17 O         137.3474  141.9059  163.5629 O.2     1  UNL1       -0.2473
     18 C         137.6907  140.1512  161.6778 C.3     1  UNL1        0.2520
     19 C         139.1192  138.1269  160.8959 C.3     1  UNL1        0.1748
     20 O         137.8542  138.6720  161.4897 O.3     1  UNL1       -0.3403
     21 C         140.1140  141.8838  162.6621 C.3     1  UNL1        0.0577
     22 C         140.7374  143.1585  162.1757 C.3     1  UNL1        0.0757
     23 N         140.5951  143.5622  160.7381 N.3     1  UNL1       -0.2714
     24 C         140.8133  144.9905  160.3351 C.3     1  UNL1        0.0896
     25 C         140.2346  142.5376  159.7036 C.3     1  UNL1        0.0728
     26 C         141.1612  142.2748  158.5536 C.3     1  UNL1        0.0303
     27 C         142.2371  141.2372  158.6794 C.3     1  UNL1        0.1252
     28 C         142.8133  140.9139  160.0261 C.2     1  UNL1        0.3513
     29 N         142.3939  139.7813  160.9156 N.2     1  UNL1       -0.0350
     30 C         143.2315  139.8338  162.1589 C.2     1  UNL1        0.2317
     31 C         143.2621  138.9713  163.3857 C.2     1  UNL1        0.0498
     32 C         144.2296  139.2738  164.4913 C.2     1  UNL1       -0.0002
     33 C         145.1666  140.4388  164.3701 C.2     1  UNL1       -0.0172
     34 C         145.1361  141.3013  163.1432 C.3     1  UNL1        0.1037
     35 C         144.1686  140.9989  162.0377 C.2     1  UNL1        0.2174
     36 N         143.9101  141.6664  160.7195 N.2     1  UNL1       -0.0389
@<TRIPOS>BOND
     1    19    20    1
     2    20    18    1
     3    18    16    1
     4    16    17    2
     5    16    15    1
     6    15     1    1
     7     1    21    1
     8    21    22    1
     9    22    23    1
    10    23    24    1
    11    23    25    1
    12    25    26    1
    13    26    27    1
    14    27    28    1
    15    28    29    2
    16    29    30    1
    17    30    31    2
    18    31    32    1
    19    32    33    2
    20    33    34    1
    21    34    35    1
    22    35    36    2
    23     1     2    1
    24     2     3    1
    25     3     4    1
    26     4     5   ar
    27     5     6   ar
    28     6     7    1
    29     6     8   ar
    30     8     9   ar
    31     9    10   ar
    32    10    11    1
    33    11    12    1
    34    12    13    1
    35    12    14    1
    36    11     1    1
    37    36    28    1
    38    10     4   ar
    39    35    30    1
