@<TRIPOS>MOLECULE
*****
 31 33 0 0 0
SMALL
GASTEIGER

@<TRIPOS>ATOM
      1 N         138.2027  141.1418  162.0190 N.3     1  UNL1       -0.2662
      2 C         139.3002  142.0488  161.5470 C.3     1  UNL1        0.0772
      3 C         140.7073  141.5375  161.4527 C.3     1  UNL1        0.0446
      4 C         142.4005  144.0524  162.6603 C.3     1  UNL1        0.0517
      5 C         142.3565  142.6650  163.2287 C.2     1  UNL1        0.0551
      6 N         143.0831  142.1898  164.4519 N.2     1  UNL1       -0.2503
      7 C         142.7539  140.7403  164.6529 C.2     1  UNL1        0.0770
      8 C         143.1808  139.7492  165.6947 C.2     1  UNL1        0.0184
      9 C         142.6777  138.3372  165.6374 C.2     1  UNL1       -0.0027
     10 C         141.7477  137.9164  164.5384 C.2     1  UNL1       -0.0213
     11 C         141.3207  138.9076  163.4966 C.3     1  UNL1        0.0535
     12 C         141.8238  140.3195  163.5539 C.2     1  UNL1       -0.0030
     13 C         141.5782  141.5090  162.6737 C.2     1  UNL1       -0.0094
     14 C         137.7474  140.0029  161.1556 C.3     1  UNL1        0.1110
     15 C         137.6932  138.6123  161.7154 C.3     1  UNL1        0.2105
     16 F         138.8759  137.7005  161.5747 F       1  UNL1       -0.2328
     17 C         137.5605  141.3738  163.3546 C.3     1  UNL1        0.0992
     18 C         138.3044  141.0375  164.6130 C.ar    1  UNL1       -0.0061
     19 C         138.1970  139.6627  165.2032 C.ar    1  UNL1       -0.0029
     20 C         138.9409  139.3265  166.4615 C.ar    1  UNL1       -0.0003
     21 C         139.7924  140.3651  167.1297 C.ar    1  UNL1        0.0001
     22 C         139.8998  141.7399  166.5395 C.ar    1  UNL1       -0.0003
     23 C         139.1559  142.0761  165.2812 C.ar    1  UNL1       -0.0029
     24 C         140.5363  140.0288  168.3881 C.2     1  UNL1        0.0047
     25 C         141.3462  141.0818  169.0846 C.2     1  UNL1        0.0598
     26 C         142.0902  140.7457  170.3430 C.2     1  UNL1        0.2679
     27 O         141.6701  141.3545  171.6479 O.2     1  UNL1       -0.2681
     28 N         143.2542  139.8007  170.2965 N.am    1  UNL1       -0.1934
     29 O         143.9981  139.4646  171.5549 O.3     1  UNL1       -0.2949
     30 H         143.5299  139.4011  169.4400 H       1  UNL1        0.1825
     31 H         143.6008  139.9391  172.3019 H       1  UNL1        0.2414
@<TRIPOS>BOND
     1     4     5    1
     2     5     6    2
     3     6     7    1
     4     7     8    2
     5     8     9    1
     6     9    10    2
     7    10    11    1
     8    11    12    1
     9    12    13    2
    10    13     3    1
    11     3     2    1
    12     2     1    1
    13     1    14    1
    14    14    15    1
    15    15    16    1
    16     1    17    1
    17    17    18    1
    18    18    19   ar
    19    19    20   ar
    20    20    21   ar
    21    21    24    1
    22    24    25    2
    23    25    26    1
    24    26    27    2
    25    26    28   am
    26    28    29    1
    27    21    22   ar
    28    22    23   ar
    29    13     5    1
    30    23    18   ar
    31    12     7    1
    32    28    30    1
    33    29    31    1
@<TRIPOS>MOLECULE
*****
 31 33 0 0 0
SMALL
GASTEIGER

@<TRIPOS>ATOM
      1 N         140.0845  137.8101  162.5970 N.3     1  UNL1       -0.2662
      2 C         140.8321  138.3682  161.4224 C.3     1  UNL1        0.0772
      3 C         141.2778  139.8005  161.4288 C.3     1  UNL1        0.0446
      4 C         144.2304  138.4677  161.0340 C.3     1  UNL1        0.0517
      5 C         143.8847  139.5812  161.9777 C.2     1  UNL1        0.0551
      6 N         144.8354  140.2776  162.9057 N.2     1  UNL1       -0.2503
      7 C         144.0658  141.3206  163.6607 C.2     1  UNL1        0.0770
      8 C         144.4796  142.3108  164.7087 C.2     1  UNL1        0.0184
      9 C         143.4670  143.2492  165.2953 C.2     1  UNL1       -0.0027
     10 C         142.0407  143.1974  164.8339 C.2     1  UNL1       -0.0213
     11 C         141.6269  142.2072  163.7859 C.3     1  UNL1        0.0535
     12 C         142.6395  141.2688  163.1993 C.2     1  UNL1       -0.0030
     13 C         142.5275  140.1938  162.1592 C.2     1  UNL1       -0.0094
     14 C         138.5859  137.7497  162.5723 C.3     1  UNL1        0.1110
     15 C         137.7937  138.9517  162.1509 C.3     1  UNL1        0.2105
     16 F         137.6295  140.1090  163.0908 F       1  UNL1       -0.2328
     17 C         140.8355  137.3126  163.7963 C.3     1  UNL1        0.0992
     18 C         141.2209  138.2659  164.8884 C.ar    1  UNL1       -0.0061
     19 C         142.6311  138.2910  165.3991 C.ar    1  UNL1       -0.0029
     20 C         143.0164  139.2444  166.4912 C.ar    1  UNL1       -0.0003
     21 C         141.9915  140.1726  167.0727 C.ar    1  UNL1        0.0001
     22 C         140.5814  140.1475  166.5621 C.ar    1  UNL1       -0.0003
     23 C         140.1960  139.1942  165.4700 C.ar    1  UNL1       -0.0029
     24 C         142.3769  141.1259  168.1648 C.2     1  UNL1        0.0047
     25 C         141.4132  142.1858  168.6096 C.2     1  UNL1        0.0598
     26 C         141.7985  143.1391  169.7018 C.2     1  UNL1        0.2679
     27 O         140.7867  144.1025  170.2478 O.2     1  UNL1       -0.2681
     28 N         143.1955  143.1292  170.2479 N.am    1  UNL1       -0.1934
     29 O         143.5807  144.0826  171.3400 O.3     1  UNL1       -0.2949
     30 H         143.8596  142.4969  169.8895 H       1  UNL1        0.1825
     31 H         142.8158  144.6307  171.5754 H       1  UNL1        0.2414
@<TRIPOS>BOND
     1     4     5    1
     2     5     6    2
     3     6     7    1
     4     7     8    2
     5     8     9    1
     6     9    10    2
     7    10    11    1
     8    11    12    1
     9    12    13    2
    10    13     3    1
    11     3     2    1
    12     2     1    1
    13     1    14    1
    14    14    15    1
    15    15    16    1
    16     1    17    1
    17    17    18    1
    18    18    19   ar
    19    19    20   ar
    20    20    21   ar
    21    21    24    1
    22    24    25    2
    23    25    26    1
    24    26    27    2
    25    26    28   am
    26    28    29    1
    27    21    22   ar
    28    22    23   ar
    29    13     5    1
    30    23    18   ar
    31    12     7    1
    32    28    30    1
    33    29    31    1
@<TRIPOS>MOLECULE
*****
 31 33 0 0 0
SMALL
GASTEIGER

@<TRIPOS>ATOM
      1 N         141.7484  144.2726  161.7553 N.3     1  UNL1       -0.2662
      2 C         142.2553  142.9988  161.1466 C.3     1  UNL1        0.0772
      3 C         141.3173  141.8502  160.9208 C.3     1  UNL1        0.0446
      4 C         138.1553  142.3794  161.5305 C.3     1  UNL1        0.0517
      5 C         139.0806  141.5281  162.3486 C.2     1  UNL1        0.0551
      6 N         138.7149  140.7706  163.5905 N.2     1  UNL1       -0.2503
      7 C         139.9423  140.0591  164.0779 C.2     1  UNL1        0.0770
      8 C         140.1814  139.1630  165.2567 C.2     1  UNL1        0.0184
      9 C         141.5448  138.5847  165.4948 C.2     1  UNL1       -0.0027
     10 C         142.6690  138.9026  164.5540 C.2     1  UNL1       -0.0213
     11 C         142.4299  139.7987  163.3752 C.3     1  UNL1        0.0535
     12 C         141.0665  140.3770  163.1371 C.2     1  UNL1       -0.0030
     13 C         140.5339  141.2848  162.0683 C.2     1  UNL1       -0.0094
     14 C         140.7706  145.1260  161.0033 C.3     1  UNL1        0.1110
     15 C         139.8699  146.0674  161.7466 C.3     1  UNL1        0.2105
     16 F         138.6753  145.5380  162.4831 F       1  UNL1       -0.2328
     17 C         142.2193  144.6929  163.1160 C.3     1  UNL1        0.0992
     18 C         141.7925  143.9205  164.3289 C.ar    1  UNL1       -0.0061
     19 C         140.3700  143.9894  164.7999 C.ar    1  UNL1       -0.0029
     20 C         139.9433  143.2169  166.0128 C.ar    1  UNL1       -0.0003
     21 C         140.9390  142.3756  166.7549 C.ar    1  UNL1        0.0001
     22 C         142.3615  142.3066  166.2840 C.ar    1  UNL1       -0.0003
     23 C         142.7883  143.0790  165.0710 C.ar    1  UNL1       -0.0029
     24 C         140.5122  141.6032  167.9678 C.2     1  UNL1        0.0047
     25 C         140.9343  142.0581  169.3334 C.2     1  UNL1        0.0598
     26 C         140.5076  141.2857  170.5464 C.2     1  UNL1        0.2679
     27 O         140.5121  141.9437  171.8944 O.2     1  UNL1       -0.2681
     28 N         140.0764  139.8554  170.4116 N.am    1  UNL1       -0.1934
     29 O         139.6496  139.0831  171.6246 O.3     1  UNL1       -0.2949
     30 H         140.0734  139.4235  169.5269 H       1  UNL1        0.1825
     31 H         139.7110  139.6517  172.4081 H       1  UNL1        0.2414
@<TRIPOS>BOND
     1     4     5    1
     2     5     6    2
     3     6     7    1
     4     7     8    2
     5     8     9    1
     6     9    10    2
     7    10    11    1
     8    11    12    1
     9    12    13    2
    10    13     3    1
    11     3     2    1
    12     2     1    1
    13     1    14    1
    14    14    15    1
    15    15    16    1
    16     1    17    1
    17    17    18    1
    18    18    19   ar
    19    19    20   ar
    20    20    21   ar
    21    21    24    1
    22    24    25    2
    23    25    26    1
    24    26    27    2
    25    26    28   am
    26    28    29    1
    27    21    22   ar
    28    22    23   ar
    29    13     5    1
    30    23    18   ar
    31    12     7    1
    32    28    30    1
    33    29    31    1
@<TRIPOS>MOLECULE
*****
 31 33 0 0 0
SMALL
GASTEIGER

@<TRIPOS>ATOM
      1 N         141.6950  143.9762  161.8195 N.3     1  UNL1       -0.2662
      2 C         142.2838  142.7347  161.2178 C.3     1  UNL1        0.0772
      3 C         141.5547  141.4285  161.3298 C.3     1  UNL1        0.0446
      4 C         144.2286  139.9584  162.4867 C.3     1  UNL1        0.0517
      5 C         142.8717  139.9507  163.1260 C.2     1  UNL1        0.0551
      6 N         142.5056  139.2660  164.4094 N.2     1  UNL1       -0.2503
      7 C         141.0503  139.5185  164.6708 C.2     1  UNL1        0.0770
      8 C         140.1419  139.0914  165.7854 C.2     1  UNL1        0.0184
      9 C         138.7002  139.5052  165.7782 C.2     1  UNL1       -0.0027
     10 C         138.1668  140.3460  164.6563 C.2     1  UNL1       -0.0213
     11 C         139.0752  140.7731  163.5417 C.3     1  UNL1        0.0535
     12 C         140.5170  140.3593  163.5490 C.2     1  UNL1       -0.0030
     13 C         141.6427  140.6265  162.5943 C.2     1  UNL1       -0.0094
     14 C         140.5566  144.6738  161.1358 C.3     1  UNL1        0.1110
     15 C         139.8442  145.7996  161.8251 C.3     1  UNL1        0.2105
     16 F         138.7758  145.5042  162.8356 F       1  UNL1       -0.2328
     17 C         142.2447  144.5202  163.1047 C.3     1  UNL1        0.0992
     18 C         142.0451  143.7646  164.3850 C.ar    1  UNL1       -0.0061
     19 C         143.2073  143.0788  165.0402 C.ar    1  UNL1       -0.0029
     20 C         143.0076  142.3232  166.3205 C.ar    1  UNL1       -0.0003
     21 C         141.6459  142.2533  166.9457 C.ar    1  UNL1        0.0001
     22 C         140.4838  142.9391  166.2906 C.ar    1  UNL1       -0.0003
     23 C         140.6834  143.6947  165.0103 C.ar    1  UNL1       -0.0029
     24 C         141.4464  141.4977  168.2261 C.2     1  UNL1        0.0047
     25 C         140.4328  141.9705  169.2257 C.2     1  UNL1        0.0598
     26 C         140.2332  141.2149  170.5060 C.2     1  UNL1        0.2679
     27 O         140.4655  141.8955  171.8224 O.2     1  UNL1       -0.2681
     28 N         139.8013  139.7789  170.4701 N.am    1  UNL1       -0.1934
     29 O         139.6017  139.0234  171.7505 O.3     1  UNL1       -0.2949
     30 H         139.6488  139.3322  169.6061 H       1  UNL1        0.1825
     31 H         139.7925  139.6056  172.5025 H       1  UNL1        0.2414
@<TRIPOS>BOND
     1     4     5    1
     2     5     6    2
     3     6     7    1
     4     7     8    2
     5     8     9    1
     6     9    10    2
     7    10    11    1
     8    11    12    1
     9    12    13    2
    10    13     3    1
    11     3     2    1
    12     2     1    1
    13     1    14    1
    14    14    15    1
    15    15    16    1
    16     1    17    1
    17    17    18    1
    18    18    19   ar
    19    19    20   ar
    20    20    21   ar
    21    21    24    1
    22    24    25    2
    23    25    26    1
    24    26    27    2
    25    26    28   am
    26    28    29    1
    27    21    22   ar
    28    22    23   ar
    29    13     5    1
    30    23    18   ar
    31    12     7    1
    32    28    30    1
    33    29    31    1
@<TRIPOS>MOLECULE
*****
 31 33 0 0 0
SMALL
GASTEIGER

@<TRIPOS>ATOM
      1 N         138.7715  142.6490  162.1907 N.3     1  UNL1       -0.2662
      2 C         139.0921  141.5227  161.2534 C.3     1  UNL1        0.0772
      3 C         140.4413  140.8686  161.3006 C.3     1  UNL1        0.0446
      4 C         139.0660  137.9106  161.2101 C.3     1  UNL1        0.0517
      5 C         140.0657  138.3876  162.2216 C.2     1  UNL1        0.0551
      6 N         140.6088  137.5887  163.3691 N.2     1  UNL1       -0.2503
      7 C         141.5766  138.4546  164.1199 C.2     1  UNL1        0.0770
      8 C         142.4148  138.2006  165.3376 C.2     1  UNL1        0.0184
      9 C         143.3080  139.2807  165.8718 C.2     1  UNL1       -0.0027
     10 C         143.3631  140.6148  165.1882 C.2     1  UNL1       -0.0213
     11 C         142.5249  140.8688  163.9705 C.3     1  UNL1        0.0535
     12 C         141.6316  139.7886  163.4364 C.2     1  UNL1       -0.0030
     13 C         140.6978  139.7472  162.2632 C.2     1  UNL1       -0.0094
     14 C         139.2399  144.0397  161.8800 C.3     1  UNL1        0.1110
     15 C         138.7837  145.1913  162.7261 C.3     1  UNL1        0.2105
     16 F         139.3877  145.4118  164.0813 F       1  UNL1       -0.2328
     17 C         137.9824  142.3846  163.4386 C.3     1  UNL1        0.0992
     18 C         138.6704  141.8594  164.6637 C.ar    1  UNL1       -0.0061
     19 C         138.3920  140.4647  165.1405 C.ar    1  UNL1       -0.0029
     20 C         139.0800  139.9396  166.3656 C.ar    1  UNL1       -0.0003
     21 C         140.0464  140.8091  167.1140 C.ar    1  UNL1        0.0001
     22 C         140.3248  142.2038  166.6372 C.ar    1  UNL1       -0.0003
     23 C         139.6369  142.7290  165.4121 C.ar    1  UNL1       -0.0029
     24 C         140.7344  140.2840  168.3391 C.2     1  UNL1        0.0047
     25 C         141.4240  141.2309  169.2759 C.2     1  UNL1        0.0598
     26 C         142.1120  140.7058  170.5011 C.2     1  UNL1        0.2679
     27 O         141.5825  141.0463  171.8626 O.2     1  UNL1       -0.2681
     28 N         143.3295  139.8403  170.3648 N.am    1  UNL1       -0.1934
     29 O         144.0174  139.3152  171.5900 O.3     1  UNL1       -0.2949
     30 H         143.6770  139.6168  169.4712 H       1  UNL1        0.1825
     31 H         143.5508  139.6266  172.3813 H       1  UNL1        0.2414
@<TRIPOS>BOND
     1     4     5    1
     2     5     6    2
     3     6     7    1
     4     7     8    2
     5     8     9    1
     6     9    10    2
     7    10    11    1
     8    11    12    1
     9    12    13    2
    10    13     3    1
    11     3     2    1
    12     2     1    1
    13     1    14    1
    14    14    15    1
    15    15    16    1
    16     1    17    1
    17    17    18    1
    18    18    19   ar
    19    19    20   ar
    20    20    21   ar
    21    21    24    1
    22    24    25    2
    23    25    26    1
    24    26    27    2
    25    26    28   am
    26    28    29    1
    27    21    22   ar
    28    22    23   ar
    29    13     5    1
    30    23    18   ar
    31    12     7    1
    32    28    30    1
    33    29    31    1
@<TRIPOS>MOLECULE
*****
 31 33 0 0 0
SMALL
GASTEIGER

@<TRIPOS>ATOM
      1 N         143.7963  142.1532  162.4851 N.3     1  UNL1       -0.2662
      2 C         142.5618  141.6470  161.7996 C.3     1  UNL1        0.0772
      3 C         141.2222  142.2293  162.1409 C.3     1  UNL1        0.0446
      4 C         139.7439  144.0529  164.4078 C.3     1  UNL1        0.0517
      5 C         139.7818  142.5539  164.3691 C.2     1  UNL1        0.0551
      6 N         139.1468  141.6299  165.3656 N.2     1  UNL1       -0.2503
      7 C         139.4339  140.2206  164.9395 C.2     1  UNL1        0.0770
      8 C         139.0605  138.8959  165.5360 C.2     1  UNL1        0.0184
      9 C         139.4995  137.6243  164.8725 C.2     1  UNL1       -0.0027
     10 C         140.3119  137.6773  163.6127 C.2     1  UNL1       -0.0213
     11 C         140.6853  139.0020  163.0163 C.3     1  UNL1        0.0535
     12 C         140.2463  140.2736  163.6797 C.2     1  UNL1       -0.0030
     13 C         140.4612  141.7157  163.3272 C.2     1  UNL1       -0.0094
     14 C         144.3772  143.4812  162.0993 C.3     1  UNL1        0.1110
     15 C         144.0640  144.7018  162.9130 C.3     1  UNL1        0.2105
     16 F         142.7852  144.7750  163.6936 F       1  UNL1       -0.2328
     17 C         144.4498  141.3314  163.5563 C.3     1  UNL1        0.0992
     18 C         143.7107  141.0306  164.8264 C.ar    1  UNL1       -0.0061
     19 C         143.4952  139.6078  165.2498 C.ar    1  UNL1       -0.0029
     20 C         142.7561  139.3071  166.5200 C.ar    1  UNL1       -0.0003
     21 C         142.2326  140.4291  167.3668 C.ar    1  UNL1        0.0001
     22 C         142.4482  141.8519  166.9435 C.ar    1  UNL1       -0.0003
     23 C         143.1872  142.1526  165.6733 C.ar    1  UNL1       -0.0029
     24 C         141.4936  140.1283  168.6370 C.2     1  UNL1        0.0047
     25 C         140.0122  140.3513  168.7135 C.2     1  UNL1        0.0598
     26 C         139.2731  140.0505  169.9837 C.2     1  UNL1        0.2679
     27 O         139.9430  140.2613  171.3091 O.2     1  UNL1       -0.2681
     28 N         137.8641  139.5390  169.9285 N.am    1  UNL1       -0.1934
     29 O         137.1251  139.2383  171.1987 O.3     1  UNL1       -0.2949
     30 H         137.4244  139.4006  169.0586 H       1  UNL1        0.1825
     31 H         137.6976  139.4277  171.9585 H       1  UNL1        0.2414
@<TRIPOS>BOND
     1     4     5    1
     2     5     6    2
     3     6     7    1
     4     7     8    2
     5     8     9    1
     6     9    10    2
     7    10    11    1
     8    11    12    1
     9    12    13    2
    10    13     3    1
    11     3     2    1
    12     2     1    1
    13     1    14    1
    14    14    15    1
    15    15    16    1
    16     1    17    1
    17    17    18    1
    18    18    19   ar
    19    19    20   ar
    20    20    21   ar
    21    21    24    1
    22    24    25    2
    23    25    26    1
    24    26    27    2
    25    26    28   am
    26    28    29    1
    27    21    22   ar
    28    22    23   ar
    29    13     5    1
    30    23    18   ar
    31    12     7    1
    32    28    30    1
    33    29    31    1
@<TRIPOS>MOLECULE
*****
 31 33 0 0 0
SMALL
GASTEIGER

@<TRIPOS>ATOM
      1 N         141.1810  138.0974  162.1919 N.3     1  UNL1       -0.2662
      2 C         140.2239  139.1487  161.7136 C.3     1  UNL1        0.0772
      3 C         140.6690  140.5775  161.6113 C.3     1  UNL1        0.0446
      4 C         138.2923  141.9399  163.3846 C.3     1  UNL1        0.0517
      5 C         139.7627  142.0222  163.6696 C.2     1  UNL1        0.0551
      6 N         140.3989  142.7451  164.8197 N.2     1  UNL1       -0.2503
      7 C         141.8844  142.5657  164.7153 C.2     1  UNL1        0.0770
      8 C         143.0168  143.0539  165.5694 C.2     1  UNL1        0.0184
      9 C         144.4312  142.7082  165.2088 C.2     1  UNL1       -0.0027
     10 C         144.7132  141.8744  163.9942 C.2     1  UNL1       -0.0213
     11 C         143.5808  141.3862  163.1402 C.3     1  UNL1        0.0535
     12 C         142.1665  141.7319  163.5008 C.2     1  UNL1       -0.0030
     13 C         140.8552  141.3960  162.8545 C.2     1  UNL1       -0.0094
     14 C         142.3025  137.6446  161.3046 C.3     1  UNL1        0.1110
     15 C         143.7165  138.0256  161.6295 C.3     1  UNL1        0.2105
     16 F         144.3994  139.1093  160.8489 F       1  UNL1       -0.2328
     17 C         141.0166  137.4990  163.5575 C.3     1  UNL1        0.0992
     18 C         141.4174  138.2819  164.7726 C.ar    1  UNL1       -0.0061
     19 C         142.8653  138.3961  165.1473 C.ar    1  UNL1       -0.0029
     20 C         143.2660  139.1791  166.3625 C.ar    1  UNL1       -0.0003
     21 C         142.2188  139.8478  167.2028 C.ar    1  UNL1        0.0001
     22 C         140.7709  139.7337  166.8280 C.ar    1  UNL1       -0.0003
     23 C         140.3701  138.9507  165.6129 C.ar    1  UNL1       -0.0029
     24 C         142.6195  140.6308  168.4179 C.2     1  UNL1        0.0047
     25 C         141.6332  141.5480  169.0779 C.2     1  UNL1        0.0598
     26 C         142.0338  142.3310  170.2930 C.2     1  UNL1        0.2679
     27 O         141.3120  142.1224  171.5912 O.2     1  UNL1       -0.2681
     28 N         143.1563  143.3226  170.2099 N.am    1  UNL1       -0.1934
     29 O         143.5569  144.1055  171.4250 O.3     1  UNL1       -0.2949
     30 H         143.6301  143.4595  169.3578 H       1  UNL1        0.1825
     31 H         142.9940  143.8518  172.1732 H       1  UNL1        0.2414
@<TRIPOS>BOND
     1     4     5    1
     2     5     6    2
     3     6     7    1
     4     7     8    2
     5     8     9    1
     6     9    10    2
     7    10    11    1
     8    11    12    1
     9    12    13    2
    10    13     3    1
    11     3     2    1
    12     2     1    1
    13     1    14    1
    14    14    15    1
    15    15    16    1
    16     1    17    1
    17    17    18    1
    18    18    19   ar
    19    19    20   ar
    20    20    21   ar
    21    21    24    1
    22    24    25    2
    23    25    26    1
    24    26    27    2
    25    26    28   am
    26    28    29    1
    27    21    22   ar
    28    22    23   ar
    29    13     5    1
    30    23    18   ar
    31    12     7    1
    32    28    30    1
    33    29    31    1
@<TRIPOS>MOLECULE
*****
 31 33 0 0 0
SMALL
GASTEIGER

@<TRIPOS>ATOM
      1 N         141.6020  139.5997  161.2519 N.3     1  UNL1       -0.2662
      2 C         140.5000  140.3296  160.5427 C.3     1  UNL1        0.0772
      3 C         139.0773  140.1517  160.9839 C.3     1  UNL1        0.0446
      4 C         138.0776  143.0830  162.0122 C.3     1  UNL1        0.0517
      5 C         138.2175  141.8524  162.8583 C.2     1  UNL1        0.0551
      6 N         137.9226  141.7530  164.3257 N.2     1  UNL1       -0.2503
      7 C         138.1998  140.3442  164.7599 C.2     1  UNL1        0.0770
      8 C         138.0878  139.6642  166.0922 C.2     1  UNL1        0.0184
      9 C         138.4422  138.2128  166.2254 C.2     1  UNL1       -0.0027
     10 C         138.9085  137.4414  165.0264 C.2     1  UNL1       -0.0213
     11 C         139.0205  138.1215  163.6942 C.3     1  UNL1        0.0535
     12 C         138.6661  139.5729  163.5609 C.2     1  UNL1       -0.0030
     13 C         138.6771  140.5050  162.3857 C.2     1  UNL1       -0.0094
     14 C         141.7559  138.1182  161.0744 C.3     1  UNL1        0.1110
     15 C         143.0622  137.5510  160.6034 C.3     1  UNL1        0.2105
     16 F         144.3167  137.8082  161.3844 F       1  UNL1       -0.2328
     17 C         142.5500  140.3514  162.1385 C.3     1  UNL1        0.0992
     18 C         142.1899  140.6124  163.5710 C.ar    1  UNL1       -0.0061
     19 C         141.7470  141.9812  163.9956 C.ar    1  UNL1       -0.0029
     20 C         141.3869  142.2421  165.4282 C.ar    1  UNL1       -0.0003
     21 C         141.4696  141.1344  166.4362 C.ar    1  UNL1        0.0001
     22 C         141.9125  139.7656  166.0116 C.ar    1  UNL1       -0.0003
     23 C         142.2726  139.5046  164.5790 C.ar    1  UNL1       -0.0029
     24 C         141.1095  141.3954  167.8687 C.2     1  UNL1        0.0047
     25 C         140.9018  142.8023  168.3454 C.2     1  UNL1        0.0598
     26 C         140.5416  143.0634  169.7779 C.2     1  UNL1        0.2679
     27 O         140.0352  144.4140  170.1897 O.2     1  UNL1       -0.2681
     28 N         140.6879  141.9741  170.7987 N.am    1  UNL1       -0.1934
     29 O         140.3278  142.2353  172.2312 O.3     1  UNL1       -0.2949
     30 H         141.0203  141.0877  170.5284 H       1  UNL1        0.1825
     31 H         140.0204  143.1504  172.3256 H       1  UNL1        0.2414
@<TRIPOS>BOND
     1     4     5    1
     2     5     6    2
     3     6     7    1
     4     7     8    2
     5     8     9    1
     6     9    10    2
     7    10    11    1
     8    11    12    1
     9    12    13    2
    10    13     3    1
    11     3     2    1
    12     2     1    1
    13     1    14    1
    14    14    15    1
    15    15    16    1
    16     1    17    1
    17    17    18    1
    18    18    19   ar
    19    19    20   ar
    20    20    21   ar
    21    21    24    1
    22    24    25    2
    23    25    26    1
    24    26    27    2
    25    26    28   am
    26    28    29    1
    27    21    22   ar
    28    22    23   ar
    29    13     5    1
    30    23    18   ar
    31    12     7    1
    32    28    30    1
    33    29    31    1
@<TRIPOS>MOLECULE
*****
 31 33 0 0 0
SMALL
GASTEIGER

@<TRIPOS>ATOM
      1 N         139.6014  138.5084  161.6202 N.3     1  UNL1       -0.2662
      2 C         138.3048  139.0643  161.1104 C.3     1  UNL1        0.0772
      3 C         137.6462  140.2071  161.8248 C.3     1  UNL1        0.0446
      4 C         138.2632  141.7887  159.0378 C.3     1  UNL1        0.0517
      5 C         138.4928  142.3191  160.4219 C.2     1  UNL1        0.0551
      6 N         139.0463  143.6695  160.7682 N.2     1  UNL1       -0.2503
      7 C         139.1047  143.7772  162.2632 C.2     1  UNL1        0.0770
      8 C         139.5622  144.8785  163.1730 C.2     1  UNL1        0.0184
      9 C         139.5024  144.6958  164.6606 C.2     1  UNL1       -0.0027
     10 C         138.9850  143.4119  165.2384 C.2     1  UNL1       -0.0213
     11 C         138.5275  142.3106  164.3285 C.3     1  UNL1        0.0535
     12 C         138.5874  142.4933  162.8409 C.2     1  UNL1       -0.0030
     13 C         138.2092  141.5921  161.7030 C.2     1  UNL1       -0.0094
     14 C         140.8736  138.7611  160.8670 C.3     1  UNL1        0.1110
     15 C         141.4973  140.1252  160.8845 C.3     1  UNL1        0.2105
     16 F         141.4472  140.9568  162.1319 F       1  UNL1       -0.2328
     17 C         139.6256  137.6997  162.8833 C.3     1  UNL1        0.0992
     18 C         139.6393  138.3895  164.2152 C.ar    1  UNL1       -0.0061
     19 C         140.9218  138.9470  164.7580 C.ar    1  UNL1       -0.0029
     20 C         140.9354  139.6368  166.0899 C.ar    1  UNL1       -0.0003
     21 C         139.6667  139.7691  166.8791 C.ar    1  UNL1        0.0001
     22 C         138.3843  139.2117  166.3364 C.ar    1  UNL1       -0.0003
     23 C         138.3705  138.5219  165.0045 C.ar    1  UNL1       -0.0029
     24 C         139.6804  140.4589  168.2110 C.2     1  UNL1        0.0047
     25 C         140.2066  141.8589  168.3251 C.2     1  UNL1        0.0598
     26 C         140.2204  142.5488  169.6570 C.2     1  UNL1        0.2679
     27 O         140.1908  144.0470  169.7259 O.2     1  UNL1       -0.2681
     28 N         140.2638  141.7407  170.9199 N.am    1  UNL1       -0.1934
     29 O         140.2776  142.4307  172.2517 O.3     1  UNL1       -0.2949
     30 H         140.2832  140.7574  170.8747 H       1  UNL1        0.1825
     31 H         140.2548  143.3912  172.1185 H       1  UNL1        0.2414
@<TRIPOS>BOND
     1     4     5    1
     2     5     6    2
     3     6     7    1
     4     7     8    2
     5     8     9    1
     6     9    10    2
     7    10    11    1
     8    11    12    1
     9    12    13    2
    10    13     3    1
    11     3     2    1
    12     2     1    1
    13     1    14    1
    14    14    15    1
    15    15    16    1
    16     1    17    1
    17    17    18    1
    18    18    19   ar
    19    19    20   ar
    20    20    21   ar
    21    21    24    1
    22    24    25    2
    23    25    26    1
    24    26    27    2
    25    26    28   am
    26    28    29    1
    27    21    22   ar
    28    22    23   ar
    29    13     5    1
    30    23    18   ar
    31    12     7    1
    32    28    30    1
    33    29    31    1
