@<TRIPOS>MOLECULE
*****
 41 46 0 0 0
SMALL
GASTEIGER

@<TRIPOS>ATOM
      1 C         142.8094  139.1419  160.5669 C.3     1  UNL1        0.0747
      2 C         144.1243  139.5367  161.1710 C.3     1  UNL1        0.0369
      3 C         144.2058  140.7300  162.0761 C.3     1  UNL1        0.0741
      4 N         142.9722  141.5287  162.3771 N.3     1  UNL1       -0.2689
      5 C         141.6572  141.1339  161.7730 C.3     1  UNL1        0.0741
      6 C         141.5758  139.9404  160.8678 C.3     1  UNL1        0.0369
      7 O         142.4250  139.5208  157.6158 O.2     1  UNL1       -0.2668
      8 C         142.5358  138.1380  158.1863 C.2     1  UNL1        0.2806
      9 N         142.7279  137.9485  159.6618 N.am    1  UNL1       -0.2999
     10 H         142.8006  137.0409  160.0362 H       1  UNL1        0.1498
     11 C         142.4543  136.9445  157.2812 C.ar    1  UNL1        0.2014
     12 C         141.4513  136.9159  156.1662 C.ar    1  UNL1        0.0843
     13 C         141.3699  135.7226  155.2611 C.ar    1  UNL1        0.2018
     14 O         140.3669  135.6940  154.1461 O.2     1  UNL1       -0.2864
     15 C         142.2914  134.5577  155.4710 C.ar    1  UNL1        0.0737
     16 C         142.2100  133.3644  154.5659 C.ar    1  UNL1        0.0085
     17 C         143.1315  132.1996  154.7759 C.ar    1  UNL1        0.0299
     18 C         144.1345  132.2282  155.8909 C.ar    1  UNL1        0.1432
     19 F         145.0560  131.0634  156.1008 F       1  UNL1       -0.2041
     20 C         144.2159  133.4216  156.7959 C.ar    1  UNL1        0.0672
     21 C         143.2944  134.5863  156.5860 C.ar    1  UNL1        0.1508
     22 O         143.3758  135.7798  157.4911 O.2     1  UNL1       -0.4486
     23 C         143.0536  142.7220  163.2821 C.3     1  UNL1        0.0992
     24 C         142.4358  142.6709  164.6481 C.ar    1  UNL1       -0.0037
     25 C         140.9766  142.9707  164.8229 C.ar    1  UNL1        0.0003
     26 C         140.3588  142.9196  166.1888 C.ar    1  UNL1        0.0390
     27 C         141.2003  142.5688  167.3799 C.ar    1  UNL1        0.1658
     28 C         142.6596  142.2690  167.2051 C.ar    1  UNL1        0.1735
     29 F         143.5011  141.9181  168.3962 F       1  UNL1       -0.2010
     30 C         143.2773  142.3201  165.8392 C.ar    1  UNL1        0.0299
     31 O         140.5825  142.5177  168.7458 O.3     1  UNL1       -0.4731
     32 C         139.8455  141.2891  169.1902 C.3     1  UNL1        0.2070
     33 C         140.0810  139.9808  168.4953 C.3     1  UNL1        0.0646
     34 C         139.2204  139.5836  167.3327 C.3     1  UNL1        0.0759
     35 N         139.8102  139.5035  165.9558 N.3     1  UNL1       -0.2751
     36 C         138.9592  139.8005  164.7569 C.3     1  UNL1        0.0575
     37 C         138.4671  139.4302  163.3892 C.3     1  UNL1        0.0173
     38 C         137.9773  140.6855  164.0480 C.3     1  UNL1        0.0173
     39 C         141.2511  139.1262  165.7779 C.3     1  UNL1        0.0575
     40 C         142.4223  138.8575  164.8801 C.3     1  UNL1        0.0173
     41 C         142.5756  138.7416  166.3677 C.3     1  UNL1        0.0173
@<TRIPOS>BOND
     1     7     8    2
     2     8     9   am
     3     9     1    1
     4     1     2    1
     5     2     3    1
     6     3     4    1
     7     4    23    1
     8    23    24    1
     9    24    25   ar
    10    25    26   ar
    11    26    27   ar
    12    27    31    1
    13    31    32    1
    14    32    33    1
    15    33    34    1
    16    34    35    1
    17    35    36    1
    18    36    37    1
    19    37    38    1
    20    35    39    1
    21    39    40    1
    22    40    41    1
    23    27    28   ar
    24    28    29    1
    25    28    30   ar
    26     4     5    1
    27     5     6    1
    28     8    11    1
    29    11    12   ar
    30    12    13   ar
    31    13    14    2
    32    13    15   ar
    33    15    16   ar
    34    16    17   ar
    35    17    18   ar
    36    18    19    1
    37    18    20   ar
    38    20    21   ar
    39    21    22   ar
    40     6     1    1
    41    22    11   ar
    42    30    24   ar
    43    21    15   ar
    44    38    36    1
    45    41    39    1
    46     9    10    1
@<TRIPOS>MOLECULE
*****
 41 46 0 0 0
SMALL
GASTEIGER

@<TRIPOS>ATOM
      1 C         140.6753  139.5600  159.5747 C.3     1  UNL1        0.0747
      2 C         140.6151  139.2851  161.0481 C.3     1  UNL1        0.0369
      3 C         140.5387  140.4241  162.0210 C.3     1  UNL1        0.0741
      4 N         140.5223  141.8382  161.5206 N.3     1  UNL1       -0.2689
      5 C         140.5825  142.1131  160.0472 C.3     1  UNL1        0.0741
      6 C         140.6590  140.9739  159.0743 C.3     1  UNL1        0.0369
      7 O         143.3464  138.5269  158.6816 O.2     1  UNL1       -0.2668
      8 C         142.0873  137.9044  158.1552 C.2     1  UNL1        0.2806
      9 N         140.7518  138.4209  158.6018 N.am    1  UNL1       -0.2999
     10 H         139.9254  138.0123  158.2563 H       1  UNL1        0.1498
     11 C         142.1638  136.7652  157.1822 C.ar    1  UNL1        0.2014
     12 C         141.3014  136.7681  155.9549 C.ar    1  UNL1        0.0843
     13 C         141.3778  135.6291  154.9819 C.ar    1  UNL1        0.2018
     14 O         140.5155  135.6320  153.7546 O.2     1  UNL1       -0.2864
     15 C         142.3166  134.4871  155.2362 C.ar    1  UNL1        0.0737
     16 C         142.3930  133.3481  154.2633 C.ar    1  UNL1        0.0085
     17 C         143.3318  132.2062  154.5176 C.ar    1  UNL1        0.0299
     18 C         144.1941  132.2033  155.7449 C.ar    1  UNL1        0.1432
     19 F         145.1329  131.0613  155.9993 F       1  UNL1       -0.2041
     20 C         144.1177  133.3423  156.7179 C.ar    1  UNL1        0.0672
     21 C         143.1790  134.4842  156.4636 C.ar    1  UNL1        0.1508
     22 O         143.1025  135.6233  157.4366 O.2     1  UNL1       -0.4486
     23 C         140.4459  142.9772  162.4935 C.3     1  UNL1        0.0992
     24 C         140.8538  142.7719  163.9223 C.ar    1  UNL1       -0.0037
     25 C         139.8089  142.5620  164.9779 C.ar    1  UNL1        0.0003
     26 C         140.2168  142.3567  166.4066 C.ar    1  UNL1        0.0390
     27 C         141.6696  142.3611  166.7799 C.ar    1  UNL1        0.1658
     28 C         142.7145  142.5709  165.7244 C.ar    1  UNL1        0.1735
     29 F         144.1674  142.5754  166.0976 F       1  UNL1       -0.2010
     30 C         142.3066  142.7763  164.2956 C.ar    1  UNL1        0.0299
     31 O         142.0775  142.1557  168.2087 O.3     1  UNL1       -0.4731
     32 C         142.6768  140.8492  168.6372 C.3     1  UNL1        0.2070
     33 C         142.2537  139.5748  167.9686 C.3     1  UNL1        0.0646
     34 C         143.1231  138.9565  166.9141 C.3     1  UNL1        0.0759
     35 N         142.6523  138.9021  165.4910 N.3     1  UNL1       -0.2751
     36 C         141.2317  138.5306  165.1846 C.3     1  UNL1        0.0575
     37 C         139.7623  138.8084  165.3010 C.3     1  UNL1        0.0173
     38 C         140.2406  137.6091  164.5376 C.3     1  UNL1        0.0173
     39 C         143.6022  139.2193  164.3741 C.3     1  UNL1        0.0575
     40 C         144.8404  139.9046  163.8771 C.3     1  UNL1        0.0173
     41 C         144.0090  139.0833  162.9368 C.3     1  UNL1        0.0173
@<TRIPOS>BOND
     1     7     8    2
     2     8     9   am
     3     9     1    1
     4     1     2    1
     5     2     3    1
     6     3     4    1
     7     4    23    1
     8    23    24    1
     9    24    25   ar
    10    25    26   ar
    11    26    27   ar
    12    27    31    1
    13    31    32    1
    14    32    33    1
    15    33    34    1
    16    34    35    1
    17    35    36    1
    18    36    37    1
    19    37    38    1
    20    35    39    1
    21    39    40    1
    22    40    41    1
    23    27    28   ar
    24    28    29    1
    25    28    30   ar
    26     4     5    1
    27     5     6    1
    28     8    11    1
    29    11    12   ar
    30    12    13   ar
    31    13    14    2
    32    13    15   ar
    33    15    16   ar
    34    16    17   ar
    35    17    18   ar
    36    18    19    1
    37    18    20   ar
    38    20    21   ar
    39    21    22   ar
    40     6     1    1
    41    22    11   ar
    42    30    24   ar
    43    21    15   ar
    44    38    36    1
    45    41    39    1
    46     9    10    1
@<TRIPOS>MOLECULE
*****
 41 46 0 0 0
SMALL
GASTEIGER

@<TRIPOS>ATOM
      1 C         143.7119  139.9293  159.0177 C.3     1  UNL1        0.0747
      2 C         143.4485  141.3415  158.5860 C.3     1  UNL1        0.0369
      3 C         143.5421  142.4598  159.5813 C.3     1  UNL1        0.0741
      4 N         143.8993  142.1660  161.0082 N.3     1  UNL1       -0.2689
      5 C         144.1628  140.7539  161.4399 C.3     1  UNL1        0.0741
      6 C         144.0691  139.6355  160.4446 C.3     1  UNL1        0.0369
      7 O         141.2324  138.2461  158.8816 O.2     1  UNL1       -0.2668
      8 C         142.3785  137.9694  157.9544 C.2     1  UNL1        0.2806
      9 N         143.6183  138.8110  158.0225 N.am    1  UNL1       -0.2999
     10 H         144.3706  138.6294  157.4139 H       1  UNL1        0.1498
     11 C         142.2849  136.8510  156.9591 C.ar    1  UNL1        0.2014
     12 C         141.3099  136.9382  155.8226 C.ar    1  UNL1        0.0843
     13 C         141.2162  135.8199  154.8273 C.ar    1  UNL1        0.2018
     14 O         140.2412  135.9070  153.6908 O.2     1  UNL1       -0.2864
     15 C         142.0977  134.6144  154.9686 C.ar    1  UNL1        0.0737
     16 C         142.0040  133.4961  153.9733 C.ar    1  UNL1        0.0085
     17 C         142.8854  132.2906  154.1146 C.ar    1  UNL1        0.0299
     18 C         143.8605  132.2035  155.2511 C.ar    1  UNL1        0.1432
     19 F         144.7419  130.9980  155.3923 F       1  UNL1       -0.2041
     20 C         143.9541  133.3218  156.2464 C.ar    1  UNL1        0.0672
     21 C         143.0727  134.5272  156.1051 C.ar    1  UNL1        0.1508
     22 O         143.1663  135.6456  157.1004 O.2     1  UNL1       -0.4486
     23 C         143.9929  143.2844  162.0035 C.3     1  UNL1        0.0992
     24 C         142.7712  143.7244  162.7543 C.ar    1  UNL1       -0.0037
     25 C         142.4466  143.1108  164.0840 C.ar    1  UNL1        0.0003
     26 C         141.2249  143.5509  164.8349 C.ar    1  UNL1        0.0390
     27 C         140.3278  144.6045  164.2561 C.ar    1  UNL1        0.1658
     28 C         140.6524  145.2181  162.9264 C.ar    1  UNL1        0.1735
     29 F         139.7553  146.2718  162.3475 F       1  UNL1       -0.2010
     30 C         141.8741  144.7780  162.1755 C.ar    1  UNL1        0.0299
     31 O         139.1061  145.0446  165.0069 O.3     1  UNL1       -0.4731
     32 C         137.7853  144.3843  164.7432 C.3     1  UNL1        0.2070
     33 C         137.6040  143.5305  163.5233 C.3     1  UNL1        0.0646
     34 C         137.3368  142.0617  163.6689 C.3     1  UNL1        0.0759
     35 N         138.4759  141.0861  163.6444 N.3     1  UNL1       -0.2751
     36 C         139.4748  141.1274  162.5261 C.3     1  UNL1        0.0575
     37 C         140.7405  140.6268  161.8957 C.3     1  UNL1        0.0173
     38 C         139.9391  141.6994  161.2195 C.3     1  UNL1        0.0173
     39 C         138.6162  140.0693  164.7382 C.3     1  UNL1        0.0575
     40 C         138.5866  138.6411  165.1958 C.3     1  UNL1        0.0173
     41 C         138.8888  139.7363  166.1751 C.3     1  UNL1        0.0173
@<TRIPOS>BOND
     1     7     8    2
     2     8     9   am
     3     9     1    1
     4     1     2    1
     5     2     3    1
     6     3     4    1
     7     4    23    1
     8    23    24    1
     9    24    25   ar
    10    25    26   ar
    11    26    27   ar
    12    27    31    1
    13    31    32    1
    14    32    33    1
    15    33    34    1
    16    34    35    1
    17    35    36    1
    18    36    37    1
    19    37    38    1
    20    35    39    1
    21    39    40    1
    22    40    41    1
    23    27    28   ar
    24    28    29    1
    25    28    30   ar
    26     4     5    1
    27     5     6    1
    28     8    11    1
    29    11    12   ar
    30    12    13   ar
    31    13    14    2
    32    13    15   ar
    33    15    16   ar
    34    16    17   ar
    35    17    18   ar
    36    18    19    1
    37    18    20   ar
    38    20    21   ar
    39    21    22   ar
    40     6     1    1
    41    22    11   ar
    42    30    24   ar
    43    21    15   ar
    44    38    36    1
    45    41    39    1
    46     9    10    1
@<TRIPOS>MOLECULE
*****
 41 46 0 0 0
SMALL
GASTEIGER

@<TRIPOS>ATOM
      1 C         142.5121  140.1595  159.0625 C.3     1  UNL1        0.0747
      2 C         143.8354  140.8106  159.3363 C.3     1  UNL1        0.0369
      3 C         143.9391  141.8935  160.3691 C.3     1  UNL1        0.0741
      4 N         142.7194  142.3254  161.1280 N.3     1  UNL1       -0.2689
      5 C         141.3961  141.6743  160.8542 C.3     1  UNL1        0.0741
      6 C         141.2924  140.5914  159.8214 C.3     1  UNL1        0.0369
      7 O         143.0231  137.3039  159.8268 O.2     1  UNL1       -0.2668
      8 C         142.6640  137.6488  158.4120 C.2     1  UNL1        0.2806
      9 N         142.4084  139.0767  158.0298 N.am    1  UNL1       -0.2999
     10 H         142.1727  139.3030  157.1011 H       1  UNL1        0.1498
     11 C         142.5603  136.5659  157.3791 C.ar    1  UNL1        0.2014
     12 C         141.5881  136.7018  156.2450 C.ar    1  UNL1        0.0843
     13 C         141.4844  135.6190  155.2122 C.ar    1  UNL1        0.2018
     14 O         140.5122  135.7549  154.0780 O.2     1  UNL1       -0.2864
     15 C         142.3529  134.4002  155.3136 C.ar    1  UNL1        0.0737
     16 C         142.2492  133.3173  154.2808 C.ar    1  UNL1        0.0085
     17 C         143.1176  132.0986  154.3822 C.ar    1  UNL1        0.0299
     18 C         144.0898  131.9626  155.5164 C.ar    1  UNL1        0.1432
     19 F         144.9583  130.7438  155.6178 F       1  UNL1       -0.2041
     20 C         144.1935  133.0455  156.5492 C.ar    1  UNL1        0.0672
     21 C         143.3251  134.2642  156.4478 C.ar    1  UNL1        0.1508
     22 O         143.4287  135.3472  157.4806 O.2     1  UNL1       -0.4486
     23 C         142.8230  143.4083  162.1607 C.3     1  UNL1        0.0992
     24 C         142.6553  143.0772  163.6141 C.ar    1  UNL1       -0.0037
     25 C         143.8423  143.1013  164.5307 C.ar    1  UNL1        0.0003
     26 C         143.6746  142.7702  165.9840 C.ar    1  UNL1        0.0390
     27 C         142.3197  142.4151  166.5208 C.ar    1  UNL1        0.1658
     28 C         141.1326  142.3910  165.6042 C.ar    1  UNL1        0.1735
     29 F         139.7777  142.0358  166.1409 F       1  UNL1       -0.2010
     30 C         141.3004  142.7220  164.1508 C.ar    1  UNL1        0.0299
     31 O         142.1519  142.0840  167.9741 O.3     1  UNL1       -0.4731
     32 C         142.8246  140.8733  168.5501 C.3     1  UNL1        0.2070
     33 C         142.3834  139.5012  168.1344 C.3     1  UNL1        0.0646
     34 C         143.1310  138.7659  167.0618 C.3     1  UNL1        0.0759
     35 N         142.6641  138.8381  165.6381 N.3     1  UNL1       -0.2751
     36 C         143.6221  139.2336  164.5538 C.3     1  UNL1        0.0575
     37 C         144.9948  139.6600  164.1251 C.3     1  UNL1        0.0173
     38 C         143.9086  139.4924  163.1043 C.3     1  UNL1        0.0173
     39 C         141.2392  138.5147  165.2988 C.3     1  UNL1        0.0575
     40 C         139.7764  138.8318  165.3966 C.3     1  UNL1        0.0173
     41 C         140.2341  137.6373  164.6133 C.3     1  UNL1        0.0173
@<TRIPOS>BOND
     1     7     8    2
     2     8     9   am
     3     9     1    1
     4     1     2    1
     5     2     3    1
     6     3     4    1
     7     4    23    1
     8    23    24    1
     9    24    25   ar
    10    25    26   ar
    11    26    27   ar
    12    27    31    1
    13    31    32    1
    14    32    33    1
    15    33    34    1
    16    34    35    1
    17    35    36    1
    18    36    37    1
    19    37    38    1
    20    35    39    1
    21    39    40    1
    22    40    41    1
    23    27    28   ar
    24    28    29    1
    25    28    30   ar
    26     4     5    1
    27     5     6    1
    28     8    11    1
    29    11    12   ar
    30    12    13   ar
    31    13    14    2
    32    13    15   ar
    33    15    16   ar
    34    16    17   ar
    35    17    18   ar
    36    18    19    1
    37    18    20   ar
    38    20    21   ar
    39    21    22   ar
    40     6     1    1
    41    22    11   ar
    42    30    24   ar
    43    21    15   ar
    44    38    36    1
    45    41    39    1
    46     9    10    1
@<TRIPOS>MOLECULE
*****
 41 46 0 0 0
SMALL
GASTEIGER

@<TRIPOS>ATOM
      1 C         143.2468  139.4204  160.2129 C.3     1  UNL1        0.0747
      2 C         144.0948  140.6249  159.9297 C.3     1  UNL1        0.0369
      3 C         144.1048  141.7775  160.8895 C.3     1  UNL1        0.0741
      4 N         143.2668  141.7257  162.1326 N.3     1  UNL1       -0.2689
      5 C         142.4188  140.5213  162.4158 C.3     1  UNL1        0.0741
      6 C         142.4089  139.3686  161.4559 C.3     1  UNL1        0.0369
      7 O         141.1094  139.2328  158.1161 O.2     1  UNL1       -0.2668
      8 C         142.1681  138.1740  158.2047 C.2     1  UNL1        0.2806
      9 N         143.2369  138.2678  159.2531 N.am    1  UNL1       -0.2999
     10 H         143.9317  137.5728  159.3112 H       1  UNL1        0.1498
     11 C         142.1582  137.0212  157.2449 C.ar    1  UNL1        0.2014
     12 C         141.2076  137.0197  156.0845 C.ar    1  UNL1        0.0843
     13 C         141.1976  135.8670  155.1247 C.ar    1  UNL1        0.2018
     14 O         140.2471  135.8655  153.9644 O.2     1  UNL1       -0.2864
     15 C         142.1382  134.7159  155.3253 C.ar    1  UNL1        0.0737
     16 C         142.1283  133.5632  154.3654 C.ar    1  UNL1        0.0085
     17 C         143.0688  132.4121  154.5660 C.ar    1  UNL1        0.0299
     18 C         144.0194  132.4137  155.7264 C.ar    1  UNL1        0.1432
     19 F         144.9600  131.2625  155.9269 F       1  UNL1       -0.2041
     20 C         144.0294  133.5663  156.6862 C.ar    1  UNL1        0.0672
     21 C         143.0888  134.7174  156.4856 C.ar    1  UNL1        0.1508
     22 O         143.0988  135.8701  157.4454 O.2     1  UNL1       -0.4486
     23 C         143.2768  142.8784  163.0924 C.3     1  UNL1        0.0992
     24 C         142.6056  142.7484  164.4275 C.ar    1  UNL1       -0.0037
     25 C         143.3516  142.1592  165.5878 C.ar    1  UNL1        0.0003
     26 C         142.6805  142.0292  166.9229 C.ar    1  UNL1        0.0390
     27 C         141.2633  142.4885  167.0978 C.ar    1  UNL1        0.1658
     28 C         140.5173  143.0778  165.9376 C.ar    1  UNL1        0.1735
     29 F         139.1001  143.5371  166.1125 F       1  UNL1       -0.2010
     30 C         141.1885  143.2077  164.6024 C.ar    1  UNL1        0.0299
     31 O         140.5922  142.3586  168.4330 O.3     1  UNL1       -0.4731
     32 C         139.9688  141.0550  168.8354 C.3     1  UNL1        0.2070
     33 C         140.0577  139.8678  167.9228 C.3     1  UNL1        0.0646
     34 C         139.0356  139.6745  166.8420 C.3     1  UNL1        0.0759
     35 N         139.4750  139.4552  165.4247 N.3     1  UNL1       -0.2751
     36 C         140.6201  138.5327  165.1287 C.3     1  UNL1        0.0575
     37 C         141.1397  137.2538  164.5418 C.3     1  UNL1        0.0173
     38 C         142.0839  138.2136  165.2030 C.3     1  UNL1        0.0173
     39 C         138.7694  140.1586  164.3034 C.3     1  UNL1        0.0575
     40 C         137.9257  141.2967  163.8104 C.3     1  UNL1        0.0173
     41 C         138.3908  140.2387  162.8541 C.3     1  UNL1        0.0173
@<TRIPOS>BOND
     1     7     8    2
     2     8     9   am
     3     9     1    1
     4     1     2    1
     5     2     3    1
     6     3     4    1
     7     4    23    1
     8    23    24    1
     9    24    25   ar
    10    25    26   ar
    11    26    27   ar
    12    27    31    1
    13    31    32    1
    14    32    33    1
    15    33    34    1
    16    34    35    1
    17    35    36    1
    18    36    37    1
    19    37    38    1
    20    35    39    1
    21    39    40    1
    22    40    41    1
    23    27    28   ar
    24    28    29    1
    25    28    30   ar
    26     4     5    1
    27     5     6    1
    28     8    11    1
    29    11    12   ar
    30    12    13   ar
    31    13    14    2
    32    13    15   ar
    33    15    16   ar
    34    16    17   ar
    35    17    18   ar
    36    18    19    1
    37    18    20   ar
    38    20    21   ar
    39    21    22   ar
    40     6     1    1
    41    22    11   ar
    42    30    24   ar
    43    21    15   ar
    44    38    36    1
    45    41    39    1
    46     9    10    1
@<TRIPOS>MOLECULE
*****
 41 46 0 0 0
SMALL
GASTEIGER

@<TRIPOS>ATOM
      1 C         143.7289  139.9868  159.3100 C.3     1  UNL1        0.0747
      2 C         144.0910  139.7212  160.7412 C.3     1  UNL1        0.0369
      3 C         144.1619  140.8557  161.7199 C.3     1  UNL1        0.0741
      4 N         143.8706  142.2559  161.2673 N.3     1  UNL1       -0.2689
      5 C         143.5086  142.5215  159.8361 C.3     1  UNL1        0.0741
      6 C         143.4377  141.3869  158.8574 C.3     1  UNL1        0.0369
      7 O         141.2664  138.2791  159.1690 O.2     1  UNL1       -0.2668
      8 C         142.4268  137.9984  158.2608 C.2     1  UNL1        0.2806
      9 N         143.6580  138.8523  158.3314 N.am    1  UNL1       -0.2999
     10 H         144.4196  138.6681  157.7353 H       1  UNL1        0.1498
     11 C         142.3559  136.8639  157.2821 C.ar    1  UNL1        0.2014
     12 C         141.3837  136.9173  156.1411 C.ar    1  UNL1        0.0843
     13 C         141.3128  135.7828  155.1624 C.ar    1  UNL1        0.2018
     14 O         140.3406  135.8362  154.0214 O.2     1  UNL1       -0.2864
     15 C         142.2142  134.5948  155.3247 C.ar    1  UNL1        0.0737
     16 C         142.1434  133.4603  154.3460 C.ar    1  UNL1        0.0085
     17 C         143.0447  132.2724  154.5083 C.ar    1  UNL1        0.0299
     18 C         144.0170  132.2190  155.6494 C.ar    1  UNL1        0.1432
     19 F         144.9184  131.0310  155.8116 F       1  UNL1       -0.2041
     20 C         144.0878  133.3535  156.6280 C.ar    1  UNL1        0.0672
     21 C         143.1865  134.5414  156.4657 C.ar    1  UNL1        0.1508
     22 O         143.2573  135.6760  157.4444 O.2     1  UNL1       -0.4486
     23 C         143.9415  143.3905  162.2460 C.3     1  UNL1        0.0992
     24 C         143.3751  143.2276  163.6253 C.ar    1  UNL1       -0.0037
     25 C         144.2940  143.0470  164.7970 C.ar    1  UNL1        0.0003
     26 C         143.7276  142.8841  166.1763 C.ar    1  UNL1        0.0390
     27 C         142.2422  142.9019  166.3840 C.ar    1  UNL1        0.1658
     28 C         141.3232  143.0825  165.2124 C.ar    1  UNL1        0.1735
     29 F         139.8377  143.1003  165.4200 F       1  UNL1       -0.2010
     30 C         141.8897  143.2454  163.8330 C.ar    1  UNL1        0.0299
     31 O         141.6757  142.7391  167.7634 O.3     1  UNL1       -0.4731
     32 C         142.4553  142.0028  168.8122 C.3     1  UNL1        0.2070
     33 C         142.2931  140.5193  168.9639 C.3     1  UNL1        0.0646
     34 C         141.0313  139.8517  168.5029 C.3     1  UNL1        0.0759
     35 N         140.8519  139.5062  167.0543 N.3     1  UNL1       -0.2751
     36 C         139.4792  139.4981  166.4497 C.3     1  UNL1        0.0575
     37 C         138.1072  138.9000  166.3497 C.3     1  UNL1        0.0173
     38 C         138.4735  140.0823  165.5024 C.3     1  UNL1        0.0173
     39 C         142.0452  139.1687  166.2103 C.3     1  UNL1        0.0575
     40 C         143.1465  138.2210  165.8376 C.3     1  UNL1        0.0173
     41 C         143.0107  139.5319  165.1214 C.3     1  UNL1        0.0173
@<TRIPOS>BOND
     1     7     8    2
     2     8     9   am
     3     9     1    1
     4     1     2    1
     5     2     3    1
     6     3     4    1
     7     4    23    1
     8    23    24    1
     9    24    25   ar
    10    25    26   ar
    11    26    27   ar
    12    27    31    1
    13    31    32    1
    14    32    33    1
    15    33    34    1
    16    34    35    1
    17    35    36    1
    18    36    37    1
    19    37    38    1
    20    35    39    1
    21    39    40    1
    22    40    41    1
    23    27    28   ar
    24    28    29    1
    25    28    30   ar
    26     4     5    1
    27     5     6    1
    28     8    11    1
    29    11    12   ar
    30    12    13   ar
    31    13    14    2
    32    13    15   ar
    33    15    16   ar
    34    16    17   ar
    35    17    18   ar
    36    18    19    1
    37    18    20   ar
    38    20    21   ar
    39    21    22   ar
    40     6     1    1
    41    22    11   ar
    42    30    24   ar
    43    21    15   ar
    44    38    36    1
    45    41    39    1
    46     9    10    1
@<TRIPOS>MOLECULE
*****
 41 46 0 0 0
SMALL
GASTEIGER

@<TRIPOS>ATOM
      1 C         143.1412  139.0584  159.4731 C.3     1  UNL1        0.0747
      2 C         141.6468  138.9389  159.5251 C.3     1  UNL1        0.0369
      3 C         140.9828  138.3559  160.7371 C.3     1  UNL1        0.0741
      4 N         141.8130  137.8924  161.8973 N.3     1  UNL1       -0.2689
      5 C         143.3074  138.0119  161.8453 C.3     1  UNL1        0.0741
      6 C         143.9714  138.5949  160.6332 C.3     1  UNL1        0.0369
      7 O         143.8047  141.9828  159.3870 O.2     1  UNL1       -0.2668
      8 C         144.1370  141.1036  158.2180 C.2     1  UNL1        0.2806
      9 N         143.8052  139.6414  158.2611 N.am    1  UNL1       -0.2999
     10 H         144.0233  139.0643  157.4938 H       1  UNL1        0.1498
     11 C         144.8011  141.6866  157.0059 C.ar    1  UNL1        0.2014
     12 C         143.9881  142.4382  155.9938 C.ar    1  UNL1        0.0843
     13 C         144.6522  143.0212  154.7818 C.ar    1  UNL1        0.2018
     14 O         143.8392  143.7727  153.7697 O.2     1  UNL1       -0.2864
     15 C         146.1292  142.8525  154.5817 C.ar    1  UNL1        0.0737
     16 C         146.7932  143.4355  153.3696 C.ar    1  UNL1        0.0085
     17 C         148.2702  143.2669  153.1695 C.ar    1  UNL1        0.0299
     18 C         149.0832  142.5153  154.1816 C.ar    1  UNL1        0.1432
     19 F         150.5602  142.3467  153.9815 F       1  UNL1       -0.2041
     20 C         148.4191  141.9323  155.3937 C.ar    1  UNL1        0.0672
     21 C         146.9422  142.1009  155.5937 C.ar    1  UNL1        0.1508
     22 O         146.2781  141.5180  156.8058 O.2     1  UNL1       -0.4486
     23 C         141.1490  137.3094  163.1093 C.3     1  UNL1        0.0992
     24 C         141.0467  138.1163  164.3696 C.ar    1  UNL1       -0.0037
     25 C         139.7680  138.8253  164.7045 C.ar    1  UNL1        0.0003
     26 C         139.6657  139.6323  165.9648 C.ar    1  UNL1        0.0390
     27 C         140.8421  139.7302  166.8902 C.ar    1  UNL1        0.1658
     28 C         142.1208  139.0213  166.5553 C.ar    1  UNL1        0.1735
     29 F         143.2973  139.1192  167.4807 F       1  UNL1       -0.2010
     30 C         142.2231  138.2143  165.2950 C.ar    1  UNL1        0.0299
     31 O         140.7398  140.5372  168.1505 O.3     1  UNL1       -0.4731
     32 C         141.3003  141.9277  168.1983 C.3     1  UNL1        0.2070
     33 C         141.8127  142.5733  166.9451 C.3     1  UNL1        0.0646
     34 C         143.2549  142.4244  166.5604 C.3     1  UNL1        0.0759
     35 N         143.6849  142.6851  165.1472 N.3     1  UNL1       -0.2751
     36 C         143.1695  143.8894  164.4164 C.3     1  UNL1        0.0575
     37 C         143.4227  145.1060  163.5765 C.3     1  UNL1        0.0173
     38 C         142.0236  144.7586  163.9907 C.3     1  UNL1        0.0173
     39 C         144.6304  141.7414  164.4647 C.3     1  UNL1        0.0575
     40 C         145.1021  140.3430  164.1966 C.3     1  UNL1        0.0173
     41 C         145.7962  141.5054  163.5509 C.3     1  UNL1        0.0173
@<TRIPOS>BOND
     1     7     8    2
     2     8     9   am
     3     9     1    1
     4     1     2    1
     5     2     3    1
     6     3     4    1
     7     4    23    1
     8    23    24    1
     9    24    25   ar
    10    25    26   ar
    11    26    27   ar
    12    27    31    1
    13    31    32    1
    14    32    33    1
    15    33    34    1
    16    34    35    1
    17    35    36    1
    18    36    37    1
    19    37    38    1
    20    35    39    1
    21    39    40    1
    22    40    41    1
    23    27    28   ar
    24    28    29    1
    25    28    30   ar
    26     4     5    1
    27     5     6    1
    28     8    11    1
    29    11    12   ar
    30    12    13   ar
    31    13    14    2
    32    13    15   ar
    33    15    16   ar
    34    16    17   ar
    35    17    18   ar
    36    18    19    1
    37    18    20   ar
    38    20    21   ar
    39    21    22   ar
    40     6     1    1
    41    22    11   ar
    42    30    24   ar
    43    21    15   ar
    44    38    36    1
    45    41    39    1
    46     9    10    1
@<TRIPOS>MOLECULE
*****
 41 46 0 0 0
SMALL
GASTEIGER

@<TRIPOS>ATOM
      1 C         138.9772  141.5865  160.4684 C.3     1  UNL1        0.0747
      2 C         138.0868  141.9600  161.6164 C.3     1  UNL1        0.0369
      3 C         138.0109  141.0754  162.8253 C.3     1  UNL1        0.0741
      4 N         138.8254  139.8172  162.8864 N.3     1  UNL1       -0.2689
      5 C         139.7157  139.4437  161.7385 C.3     1  UNL1        0.0741
      6 C         139.7916  140.3284  160.5294 C.3     1  UNL1        0.0369
      7 O         141.0699  143.7300  160.3072 O.2     1  UNL1       -0.2668
      8 C         140.0994  143.5429  159.1789 C.2     1  UNL1        0.2806
      9 N         139.0531  142.4711  159.2595 N.am    1  UNL1       -0.2999
     10 H         138.4161  142.3483  158.5189 H       1  UNL1        0.1498
     11 C         140.1753  144.4275  157.9698 C.ar    1  UNL1        0.2014
     12 C         140.9478  143.9837  156.7630 C.ar    1  UNL1        0.0843
     13 C         141.0237  144.8682  155.5540 C.ar    1  UNL1        0.2018
     14 O         141.7961  144.4243  154.3473 O.2     1  UNL1       -0.2864
     15 C         140.3271  146.1967  155.5518 C.ar    1  UNL1        0.0737
     16 C         140.4030  147.0813  154.3428 C.ar    1  UNL1        0.0085
     17 C         139.7065  148.4097  154.3405 C.ar    1  UNL1        0.0299
     18 C         138.9340  148.8536  155.5473 C.ar    1  UNL1        0.1432
     19 F         138.2375  150.1821  155.5450 F       1  UNL1       -0.2041
     20 C         138.8581  147.9690  156.7563 C.ar    1  UNL1        0.0672
     21 C         139.5547  146.6406  156.7585 C.ar    1  UNL1        0.1508
     22 O         139.4788  145.7560  157.9676 O.2     1  UNL1       -0.4486
     23 C         138.7494  138.9326  164.0954 C.3     1  UNL1        0.0992
     24 C         139.6337  139.1999  165.2771 C.ar    1  UNL1       -0.0037
     25 C         141.1055  138.9239  165.1902 C.ar    1  UNL1        0.0003
     26 C         141.9898  139.1912  166.3719 C.ar    1  UNL1        0.0390
     27 C         141.4024  139.7347  167.6406 C.ar    1  UNL1        0.1658
     28 C         139.9306  140.0108  167.7275 C.ar    1  UNL1        0.1735
     29 F         139.3431  140.5542  168.9962 F       1  UNL1       -0.2010
     30 C         139.0463  139.7434  166.5457 C.ar    1  UNL1        0.0299
     31 O         142.2867  140.0021  168.8223 O.3     1  UNL1       -0.4731
     32 C         142.8391  141.3780  169.0496 C.3     1  UNL1        0.2070
     33 C         142.6432  142.4454  168.0141 C.3     1  UNL1        0.0646
     34 C         143.6704  142.6453  166.9394 C.3     1  UNL1        0.0759
     35 N         143.3450  142.2978  165.5169 N.3     1  UNL1       -0.2751
     36 C         144.3817  141.6512  164.6468 C.3     1  UNL1        0.0575
     37 C         145.4463  141.7591  163.5957 C.3     1  UNL1        0.0173
     38 C         145.1127  140.4233  164.1910 C.3     1  UNL1        0.0173
     39 C         141.9828  142.5970  164.9646 C.3     1  UNL1        0.0575
     40 C         140.5237  142.8687  165.1821 C.3     1  UNL1        0.0173
     41 C         141.0826  142.8434  163.7903 C.3     1  UNL1        0.0173
@<TRIPOS>BOND
     1     7     8    2
     2     8     9   am
     3     9     1    1
     4     1     2    1
     5     2     3    1
     6     3     4    1
     7     4    23    1
     8    23    24    1
     9    24    25   ar
    10    25    26   ar
    11    26    27   ar
    12    27    31    1
    13    31    32    1
    14    32    33    1
    15    33    34    1
    16    34    35    1
    17    35    36    1
    18    36    37    1
    19    37    38    1
    20    35    39    1
    21    39    40    1
    22    40    41    1
    23    27    28   ar
    24    28    29    1
    25    28    30   ar
    26     4     5    1
    27     5     6    1
    28     8    11    1
    29    11    12   ar
    30    12    13   ar
    31    13    14    2
    32    13    15   ar
    33    15    16   ar
    34    16    17   ar
    35    17    18   ar
    36    18    19    1
    37    18    20   ar
    38    20    21   ar
    39    21    22   ar
    40     6     1    1
    41    22    11   ar
    42    30    24   ar
    43    21    15   ar
    44    38    36    1
    45    41    39    1
    46     9    10    1
@<TRIPOS>MOLECULE
*****
 41 46 0 0 0
SMALL
GASTEIGER

@<TRIPOS>ATOM
      1 C         141.2866  139.1237  158.3341 C.3     1  UNL1        0.0747
      2 C         142.0888  140.3771  158.1456 C.3     1  UNL1        0.0369
      3 C         141.4938  141.7083  158.4973 C.3     1  UNL1        0.0741
      4 N         140.0966  141.7862  159.0375 N.3     1  UNL1       -0.2689
      5 C         139.2945  140.5329  159.2260 C.3     1  UNL1        0.0741
      6 C         139.8895  139.2016  158.8743 C.3     1  UNL1        0.0369
      7 O         140.7568  137.9076  155.6433 O.2     1  UNL1       -0.2668
      8 C         141.6167  137.1844  156.6370 C.2     1  UNL1        0.2806
      9 N         141.8816  137.7924  157.9824 N.am    1  UNL1       -0.2999
     10 H         142.4460  137.3178  158.6346 H       1  UNL1        0.1498
     11 C         142.2117  135.8531  156.2853 C.ar    1  UNL1        0.2014
     12 C         141.9469  135.2451  154.9399 C.ar    1  UNL1        0.0843
     13 C         142.5419  133.9139  154.5882 C.ar    1  UNL1        0.2018
     14 O         142.2771  133.3059  153.2427 O.2     1  UNL1       -0.2864
     15 C         143.4017  133.1905  155.5820 C.ar    1  UNL1        0.0737
     16 C         143.9967  131.8593  155.2303 C.ar    1  UNL1        0.0085
     17 C         144.8564  131.1360  156.2240 C.ar    1  UNL1        0.0299
     18 C         145.1212  131.7439  157.5695 C.ar    1  UNL1        0.1432
     19 F         145.9811  131.0206  158.5633 F       1  UNL1       -0.2041
     20 C         144.5263  133.0752  157.9212 C.ar    1  UNL1        0.0672
     21 C         143.6665  133.7985  156.9274 C.ar    1  UNL1        0.1508
     22 O         143.0715  135.1298  157.2791 O.2     1  UNL1       -0.4486
     23 C         139.5017  143.1175  159.3892 C.3     1  UNL1        0.0992
     24 C         139.3177  143.5003  160.8278 C.ar    1  UNL1       -0.0037
     25 C         138.0891  143.0632  161.5690 C.ar    1  UNL1        0.0003
     26 C         137.9051  143.4459  163.0076 C.ar    1  UNL1        0.0390
     27 C         138.9497  144.2658  163.7051 C.ar    1  UNL1        0.1658
     28 C         140.1783  144.7029  162.9639 C.ar    1  UNL1        0.1735
     29 F         141.2230  145.5229  163.6614 F       1  UNL1       -0.2010
     30 C         140.3623  144.3202  161.5253 C.ar    1  UNL1        0.0299
     31 O         138.7657  144.6486  165.1437 O.3     1  UNL1       -0.4731
     32 C         139.5050  143.9070  166.2176 C.3     1  UNL1        0.2070
     33 C         139.8537  142.4607  166.0263 C.3     1  UNL1        0.0646
     34 C         141.2915  142.0387  165.9562 C.3     1  UNL1        0.0759
     35 N         142.0356  142.1240  164.6565 N.3     1  UNL1       -0.2751
     36 C         143.2493  142.9980  164.5432 C.3     1  UNL1        0.0575
     37 C         144.5084  143.5560  165.1375 C.3     1  UNL1        0.0173
     38 C         144.0924  143.9540  163.7525 C.3     1  UNL1        0.0173
     39 C         141.5659  141.3352  163.4702 C.3     1  UNL1        0.0575
     40 C         140.5038  140.5270  162.7855 C.3     1  UNL1        0.0173
     41 C         141.8145  140.7772  162.1003 C.3     1  UNL1        0.0173
@<TRIPOS>BOND
     1     7     8    2
     2     8     9   am
     3     9     1    1
     4     1     2    1
     5     2     3    1
     6     3     4    1
     7     4    23    1
     8    23    24    1
     9    24    25   ar
    10    25    26   ar
    11    26    27   ar
    12    27    31    1
    13    31    32    1
    14    32    33    1
    15    33    34    1
    16    34    35    1
    17    35    36    1
    18    36    37    1
    19    37    38    1
    20    35    39    1
    21    39    40    1
    22    40    41    1
    23    27    28   ar
    24    28    29    1
    25    28    30   ar
    26     4     5    1
    27     5     6    1
    28     8    11    1
    29    11    12   ar
    30    12    13   ar
    31    13    14    2
    32    13    15   ar
    33    15    16   ar
    34    16    17   ar
    35    17    18   ar
    36    18    19    1
    37    18    20   ar
    38    20    21   ar
    39    21    22   ar
    40     6     1    1
    41    22    11   ar
    42    30    24   ar
    43    21    15   ar
    44    38    36    1
    45    41    39    1
    46     9    10    1
