@<TRIPOS>MOLECULE
*****
 29 31 0 0 0
SMALL
GASTEIGER

@<TRIPOS>ATOM
      1 C         143.6904  139.7392  162.5945 C.ar    1  UNL1        0.1354
      2 C         143.1311  139.9494  163.9703 C.ar    1  UNL1        0.0581
      3 C         143.6987  141.0192  164.8553 C.ar    1  UNL1        0.1393
      4 N         144.8256  141.8788  164.3646 N.ar    1  UNL1       -0.2192
      5 C         145.3850  141.6687  162.9887 C.ar    1  UNL1        0.2002
      6 N         144.8174  140.5989  162.1036 N.ar    1  UNL1       -0.2090
      7 C         143.1393  141.2293  166.2312 C.2     1  UNL1        0.2674
      8 O         143.3518  142.5364  166.9357 O.2     1  UNL1       -0.2682
      9 N         142.3673  140.1323  166.9026 N.am    1  UNL1       -0.2791
     10 H         142.2278  139.2744  166.4402 H       1  UNL1        0.1552
     11 C         141.8080  140.3424  168.2784 C.ar    1  UNL1        0.0506
     12 C         140.3279  140.4913  168.4715 C.ar    1  UNL1        0.0147
     13 C         139.7685  140.7013  169.8474 C.ar    1  UNL1        0.0013
     14 C         140.6891  140.7625  171.0301 C.ar    1  UNL1        0.0001
     15 C         142.1692  140.6136  170.8369 C.ar    1  UNL1        0.0013
     16 C         142.7286  140.4036  169.4611 C.ar    1  UNL1        0.0147
     17 C         144.0381  137.6947  161.0294 C.3     1  UNL1        0.1139
     18 N         143.1228  138.6694  161.7094 N.pl3   1  UNL1       -0.2873
     19 C         141.6399  138.5742  161.5044 C.3     1  UNL1        0.1189
     20 C         140.7216  138.5097  162.6887 C.ar    1  UNL1       -0.0024
     21 C         140.7775  137.3336  163.6180 C.ar    1  UNL1       -0.0027
     22 C         139.8592  137.2692  164.8022 C.ar    1  UNL1        0.0036
     23 C         138.8849  138.3809  165.0572 C.ar    1  UNL1        0.0714
     24 C         138.8290  139.5570  164.1279 C.ar    1  UNL1        0.0036
     25 C         139.7473  139.6214  162.9436 C.ar    1  UNL1       -0.0027
     26 C         137.9666  138.3164  166.2415 C.3     1  UNL1        0.4186
     27 F         137.0483  138.2519  167.4258 F       1  UNL1       -0.1659
     28 F         137.8459  139.8115  166.2294 F       1  UNL1       -0.1659
     29 F         138.0872  136.8213  166.2536 F       1  UNL1       -0.1659
@<TRIPOS>BOND
     1    17    18    1
     2    18    19    1
     3    19    20    1
     4    20    21   ar
     5    21    22   ar
     6    22    23   ar
     7    23    26    1
     8    26    27    1
     9    26    28    1
    10    26    29    1
    11    23    24   ar
    12    24    25   ar
    13    18     1    1
    14     1     2   ar
    15     2     3   ar
    16     3     7    1
    17     7     8    2
    18     7     9   am
    19     9    11    1
    20    11    12   ar
    21    12    13   ar
    22    13    14   ar
    23    14    15   ar
    24    15    16   ar
    25     3     4   ar
    26     4     5   ar
    27     5     6   ar
    28    25    20   ar
    29     6     1   ar
    30    16    11   ar
    31     9    10    1
@<TRIPOS>MOLECULE
*****
 29 31 0 0 0
SMALL
GASTEIGER

@<TRIPOS>ATOM
      1 C         141.3203  139.5738  160.8491 C.ar    1  UNL1        0.1354
      2 C         141.6174  139.8776  162.2876 C.ar    1  UNL1        0.0581
      3 C         143.0387  139.9422  162.7626 C.ar    1  UNL1        0.1393
      4 N         144.1631  139.7029  161.7990 N.ar    1  UNL1       -0.2192
      5 C         143.8661  139.3991  160.3603 C.ar    1  UNL1        0.2002
      6 N         142.4447  139.3345  159.8854 N.ar    1  UNL1       -0.2090
      7 C         143.3357  140.2460  164.2012 C.2     1  UNL1        0.2674
      8 O         144.7543  140.4348  164.6505 O.2     1  UNL1       -0.2682
      9 N         142.2140  140.3610  165.1905 N.am    1  UNL1       -0.2791
     10 H         141.2830  140.2370  164.8956 H       1  UNL1        0.1552
     11 C         142.5110  140.6648  166.6290 C.ar    1  UNL1        0.0506
     12 C         142.3929  139.5849  167.6634 C.ar    1  UNL1        0.0147
     13 C         142.6899  139.8887  169.1020 C.ar    1  UNL1        0.0013
     14 C         143.1048  141.2723  169.5062 C.ar    1  UNL1        0.0001
     15 C         143.2228  142.3522  168.4718 C.ar    1  UNL1        0.0013
     16 C         142.9259  142.0484  167.0332 C.ar    1  UNL1        0.0147
     17 C         139.4694  140.3117  159.1818 C.3     1  UNL1        0.1139
     18 N         139.8990  139.5092  160.3742 N.pl3   1  UNL1       -0.2873
     19 C         138.9072  138.6422  161.0915 C.3     1  UNL1        0.1189
     20 C         138.7364  138.7685  162.5764 C.ar    1  UNL1       -0.0024
     21 C         139.0505  137.6048  163.4692 C.ar    1  UNL1       -0.0027
     22 C         138.8797  137.7312  164.9540 C.ar    1  UNL1        0.0036
     23 C         138.3948  139.0213  165.5461 C.ar    1  UNL1        0.0714
     24 C         138.0807  140.1850  164.6533 C.ar    1  UNL1        0.0036
     25 C         138.2515  140.0586  163.1685 C.ar    1  UNL1       -0.0027
     26 C         138.2240  139.1477  167.0311 C.3     1  UNL1        0.4186
     27 F         138.0532  139.2740  168.5159 F       1  UNL1       -0.1659
     28 F         139.2008  140.2859  167.0466 F       1  UNL1       -0.1659
     29 F         137.2472  138.0094  167.0155 F       1  UNL1       -0.1659
@<TRIPOS>BOND
     1    17    18    1
     2    18    19    1
     3    19    20    1
     4    20    21   ar
     5    21    22   ar
     6    22    23   ar
     7    23    26    1
     8    26    27    1
     9    26    28    1
    10    26    29    1
    11    23    24   ar
    12    24    25   ar
    13    18     1    1
    14     1     2   ar
    15     2     3   ar
    16     3     7    1
    17     7     8    2
    18     7     9   am
    19     9    11    1
    20    11    12   ar
    21    12    13   ar
    22    13    14   ar
    23    14    15   ar
    24    15    16   ar
    25     3     4   ar
    26     4     5   ar
    27     5     6   ar
    28    25    20   ar
    29     6     1   ar
    30    16    11   ar
    31     9    10    1
@<TRIPOS>MOLECULE
*****
 29 31 0 0 0
SMALL
GASTEIGER

@<TRIPOS>ATOM
      1 C         141.3251  138.3222  162.0910 C.ar    1  UNL1        0.1354
      2 C         141.0679  138.9829  163.4127 C.ar    1  UNL1        0.0581
      3 C         139.6615  139.1486  163.9074 C.ar    1  UNL1        0.1393
      4 N         138.5123  138.6534  163.0803 N.ar    1  UNL1       -0.2192
      5 C         138.7695  137.9926  161.7584 C.ar    1  UNL1        0.2002
      6 N         140.1759  137.8270  161.2637 N.ar    1  UNL1       -0.2090
      7 C         139.4043  139.8094  165.2293 C.2     1  UNL1        0.2674
      8 O         137.9974  140.0947  165.6640 O.2     1  UNL1       -0.2682
      9 N         140.5542  140.1849  166.1163 N.am    1  UNL1       -0.2791
     10 H         141.4776  139.9976  165.8310 H       1  UNL1        0.1552
     11 C         140.2970  140.8457  167.4381 C.ar    1  UNL1        0.0506
     12 C         139.6472  140.0743  168.5484 C.ar    1  UNL1        0.0147
     13 C         139.3901  140.7351  169.8703 C.ar    1  UNL1        0.0013
     14 C         139.7828  142.1673  170.0818 C.ar    1  UNL1        0.0001
     15 C         140.4326  142.9386  168.9715 C.ar    1  UNL1        0.0013
     16 C         140.6897  142.2778  167.6497 C.ar    1  UNL1        0.0147
     17 C         142.9870  137.5230  160.2608 C.3     1  UNL1        0.1139
     18 N         142.7314  138.1565  161.5963 N.pl3   1  UNL1       -0.2873
     19 C         143.8822  138.6243  162.4371 C.3     1  UNL1        0.1189
     20 C         143.9392  140.0485  162.9047 C.ar    1  UNL1       -0.0024
     21 C         144.2484  140.3547  164.3402 C.ar    1  UNL1       -0.0027
     22 C         144.3054  141.7788  164.8078 C.ar    1  UNL1        0.0036
     23 C         144.0532  142.8967  163.8399 C.ar    1  UNL1        0.0714
     24 C         143.7440  142.5904  162.4044 C.ar    1  UNL1        0.0036
     25 C         143.6870  141.1664  161.9369 C.ar    1  UNL1       -0.0027
     26 C         144.1102  144.3208  164.3076 C.3     1  UNL1        0.4186
     27 F         144.1672  145.7449  164.7752 F       1  UNL1       -0.1659
     28 F         143.7251  144.7870  162.9349 F       1  UNL1       -0.1659
     29 F         144.4953  143.8546  165.6802 F       1  UNL1       -0.1659
@<TRIPOS>BOND
     1    17    18    1
     2    18    19    1
     3    19    20    1
     4    20    21   ar
     5    21    22   ar
     6    22    23   ar
     7    23    26    1
     8    26    27    1
     9    26    28    1
    10    26    29    1
    11    23    24   ar
    12    24    25   ar
    13    18     1    1
    14     1     2   ar
    15     2     3   ar
    16     3     7    1
    17     7     8    2
    18     7     9   am
    19     9    11    1
    20    11    12   ar
    21    12    13   ar
    22    13    14   ar
    23    14    15   ar
    24    15    16   ar
    25     3     4   ar
    26     4     5   ar
    27     5     6   ar
    28    25    20   ar
    29     6     1   ar
    30    16    11   ar
    31     9    10    1
@<TRIPOS>MOLECULE
*****
 29 31 0 0 0
SMALL
GASTEIGER

@<TRIPOS>ATOM
      1 C         142.8465  139.9912  161.5782 C.ar    1  UNL1        0.1354
      2 C         142.5705  140.5459  162.9442 C.ar    1  UNL1        0.0581
      3 C         143.2126  141.8311  163.3756 C.ar    1  UNL1        0.1393
      4 N         144.1307  142.5615  162.4410 N.ar    1  UNL1       -0.2192
      5 C         144.4067  142.0068  161.0749 C.ar    1  UNL1        0.2002
      6 N         143.7646  140.7216  160.6435 N.ar    1  UNL1       -0.2090
      7 C         142.9366  142.3858  164.7417 C.2     1  UNL1        0.2674
      8 O         143.2557  143.8191  165.0477 O.2     1  UNL1       -0.2682
      9 N         142.3416  141.5070  165.8018 N.am    1  UNL1       -0.2791
     10 H         142.1321  140.5663  165.6010 H       1  UNL1        0.1552
     11 C         142.0656  142.0617  167.1679 C.ar    1  UNL1        0.0506
     12 C         143.1614  142.1160  168.1907 C.ar    1  UNL1        0.0147
     13 C         142.8854  142.6707  169.5568 C.ar    1  UNL1        0.0013
     14 C         141.5136  143.1709  169.9001 C.ar    1  UNL1        0.0001
     15 C         140.4177  143.1166  168.8772 C.ar    1  UNL1        0.0013
     16 C         140.6937  142.5619  167.5111 C.ar    1  UNL1        0.0147
     17 C         143.0496  137.5873  160.6138 C.3     1  UNL1        0.1139
     18 N         142.2044  138.7060  161.1468 N.pl3   1  UNL1       -0.2873
     19 C         140.7172  138.5396  161.2484 C.3     1  UNL1        0.1189
     20 C         140.0507  138.5552  162.5922 C.ar    1  UNL1       -0.0024
     21 C         140.4194  137.5309  163.6241 C.ar    1  UNL1       -0.0027
     22 C         139.7530  137.5465  164.9678 C.ar    1  UNL1        0.0036
     23 C         138.7179  138.5864  165.2796 C.ar    1  UNL1        0.0714
     24 C         138.3493  139.6107  164.2477 C.ar    1  UNL1        0.0036
     25 C         139.0157  139.5951  162.9040 C.ar    1  UNL1       -0.0027
     26 C         138.0515  138.6019  166.6234 C.3     1  UNL1        0.4186
     27 F         137.3851  138.6175  167.9671 F       1  UNL1       -0.1659
     28 F         138.5507  139.9974  166.8548 F       1  UNL1       -0.1659
     29 F         137.5524  137.2065  166.3920 F       1  UNL1       -0.1659
@<TRIPOS>BOND
     1    17    18    1
     2    18    19    1
     3    19    20    1
     4    20    21   ar
     5    21    22   ar
     6    22    23   ar
     7    23    26    1
     8    26    27    1
     9    26    28    1
    10    26    29    1
    11    23    24   ar
    12    24    25   ar
    13    18     1    1
    14     1     2   ar
    15     2     3   ar
    16     3     7    1
    17     7     8    2
    18     7     9   am
    19     9    11    1
    20    11    12   ar
    21    12    13   ar
    22    13    14   ar
    23    14    15   ar
    24    15    16   ar
    25     3     4   ar
    26     4     5   ar
    27     5     6   ar
    28    25    20   ar
    29     6     1   ar
    30    16    11   ar
    31     9    10    1
@<TRIPOS>MOLECULE
*****
 29 31 0 0 0
SMALL
GASTEIGER

@<TRIPOS>ATOM
      1 C         140.8651  139.2019  161.8523 C.ar    1  UNL1        0.1354
      2 C         140.6713  139.6762  163.2620 C.ar    1  UNL1        0.0581
      3 C         141.7008  139.3629  164.3070 C.ar    1  UNL1        0.1393
      4 N         142.9241  138.5753  163.9422 N.ar    1  UNL1       -0.2192
      5 C         143.1180  138.1010  162.5324 C.ar    1  UNL1        0.2002
      6 N         142.0885  138.4143  161.4874 N.ar    1  UNL1       -0.2090
      7 C         141.5069  139.8372  165.7168 C.2     1  UNL1        0.2674
      8 O         142.4432  139.3821  166.7967 O.2     1  UNL1       -0.2682
      9 N         140.3767  140.7666  166.0466 N.am    1  UNL1       -0.2791
     10 H         139.7621  141.0653  165.3378 H       1  UNL1        0.1552
     11 C         140.1827  141.2409  167.4563 C.ar    1  UNL1        0.0506
     12 C         139.5594  140.3325  168.4742 C.ar    1  UNL1        0.0147
     13 C         139.3654  140.8068  169.8840 C.ar    1  UNL1        0.0013
     14 C         139.7948  142.1895  170.2759 C.ar    1  UNL1        0.0001
     15 C         140.4182  143.0980  169.2579 C.ar    1  UNL1        0.0013
     16 C         140.6122  142.6237  167.8482 C.ar    1  UNL1        0.0147
     17 C         139.1975  138.4047  160.0265 C.3     1  UNL1        0.1139
     18 N         139.8356  139.5152  160.8073 N.pl3   1  UNL1       -0.2873
     19 C         139.4443  140.9389  160.5431 C.3     1  UNL1        0.1189
     20 C         139.2071  141.8767  161.6896 C.ar    1  UNL1       -0.0024
     21 C         137.9523  141.7636  162.5036 C.ar    1  UNL1       -0.0027
     22 C         137.7151  142.7013  163.6501 C.ar    1  UNL1        0.0036
     23 C         138.7327  143.7521  163.9824 C.ar    1  UNL1        0.0714
     24 C         139.9874  143.8652  163.1683 C.ar    1  UNL1        0.0036
     25 C         140.2246  142.9274  162.0219 C.ar    1  UNL1       -0.0027
     26 C         138.4954  144.6899  165.1289 C.3     1  UNL1        0.4186
     27 F         138.2581  145.6276  166.2754 F       1  UNL1       -0.1659
     28 F         139.9420  145.0859  165.1044 F       1  UNL1       -0.1659
     29 F         137.0489  144.2939  165.1534 F       1  UNL1       -0.1659
@<TRIPOS>BOND
     1    17    18    1
     2    18    19    1
     3    19    20    1
     4    20    21   ar
     5    21    22   ar
     6    22    23   ar
     7    23    26    1
     8    26    27    1
     9    26    28    1
    10    26    29    1
    11    23    24   ar
    12    24    25   ar
    13    18     1    1
    14     1     2   ar
    15     2     3   ar
    16     3     7    1
    17     7     8    2
    18     7     9   am
    19     9    11    1
    20    11    12   ar
    21    12    13   ar
    22    13    14   ar
    23    14    15   ar
    24    15    16   ar
    25     3     4   ar
    26     4     5   ar
    27     5     6   ar
    28    25    20   ar
    29     6     1   ar
    30    16    11   ar
    31     9    10    1
@<TRIPOS>MOLECULE
*****
 29 31 0 0 0
SMALL
GASTEIGER

@<TRIPOS>ATOM
      1 C         141.5675  144.2037  162.6372 C.ar    1  UNL1        0.1354
      2 C         141.6570  143.6996  164.0471 C.ar    1  UNL1        0.0581
      3 C         142.9924  143.3551  164.6371 C.ar    1  UNL1        0.1393
      4 N         144.2383  143.5147  163.8172 N.ar    1  UNL1       -0.2192
      5 C         144.1488  144.0189  162.4073 C.ar    1  UNL1        0.2002
      6 N         142.8135  144.3633  161.8173 N.ar    1  UNL1       -0.2090
      7 C         143.0819  142.8509  166.0471 C.2     1  UNL1        0.2674
      8 O         144.3001  143.1428  166.8721 O.2     1  UNL1       -0.2682
      9 N         141.9530  142.0549  166.6320 N.am    1  UNL1       -0.2791
     10 H         141.1535  141.8633  166.0905 H       1  UNL1        0.1552
     11 C         142.0424  141.5508  168.0418 C.ar    1  UNL1        0.0506
     12 C         141.7596  142.4757  169.1884 C.ar    1  UNL1        0.0147
     13 C         141.8490  141.9715  170.5983 C.ar    1  UNL1        0.0013
     14 C         142.2212  140.5425  170.8617 C.ar    1  UNL1        0.0001
     15 C         142.5041  139.6176  169.7151 C.ar    1  UNL1        0.0013
     16 C         142.4147  140.1218  168.3052 C.ar    1  UNL1        0.0147
     17 C         139.8246  145.9845  161.9016 C.3     1  UNL1        0.1139
     18 N         140.2322  144.5482  162.0472 N.pl3   1  UNL1       -0.2873
     19 C         139.3044  143.4565  161.6029 C.3     1  UNL1        0.1189
     20 C         139.1088  142.2425  162.4620 C.ar    1  UNL1       -0.0024
     21 C         139.7669  140.9468  162.0903 C.ar    1  UNL1       -0.0027
     22 C         139.5713  139.7329  162.9494 C.ar    1  UNL1        0.0036
     23 C         138.7177  139.8146  164.1801 C.ar    1  UNL1        0.0714
     24 C         138.0596  141.1102  164.5517 C.ar    1  UNL1        0.0036
     25 C         138.2552  142.3242  163.6926 C.ar    1  UNL1       -0.0027
     26 C         138.5221  138.6005  165.0391 C.3     1  UNL1        0.4186
     27 F         138.3266  137.3865  165.8981 F       1  UNL1       -0.1659
     28 F         137.7407  139.4215  166.0216 F       1  UNL1       -0.1659
     29 F         139.3036  137.7795  164.0567 F       1  UNL1       -0.1659
@<TRIPOS>BOND
     1    17    18    1
     2    18    19    1
     3    19    20    1
     4    20    21   ar
     5    21    22   ar
     6    22    23   ar
     7    23    26    1
     8    26    27    1
     9    26    28    1
    10    26    29    1
    11    23    24   ar
    12    24    25   ar
    13    18     1    1
    14     1     2   ar
    15     2     3   ar
    16     3     7    1
    17     7     8    2
    18     7     9   am
    19     9    11    1
    20    11    12   ar
    21    12    13   ar
    22    13    14   ar
    23    14    15   ar
    24    15    16   ar
    25     3     4   ar
    26     4     5   ar
    27     5     6   ar
    28    25    20   ar
    29     6     1   ar
    30    16    11   ar
    31     9    10    1
@<TRIPOS>MOLECULE
*****
 29 31 0 0 0
SMALL
GASTEIGER

@<TRIPOS>ATOM
      1 C         139.4266  139.8014  167.8713 C.ar    1  UNL1        0.1354
      2 C         140.1524  139.6364  166.5691 C.ar    1  UNL1        0.0581
      3 C         139.5807  138.7554  165.4981 C.ar    1  UNL1        0.1393
      4 N         138.2831  138.0393  165.7294 N.ar    1  UNL1       -0.2192
      5 C         137.5572  138.2043  167.0317 C.ar    1  UNL1        0.2002
      6 N         138.1289  139.0854  168.1027 N.ar    1  UNL1       -0.2090
      7 C         140.3066  138.5904  164.1958 C.2     1  UNL1        0.2674
      8 O         139.8803  137.5256  163.2292 O.2     1  UNL1       -0.2682
      9 N         141.4589  139.4902  163.8603 N.am    1  UNL1       -0.2791
     10 H         141.7387  140.1890  164.4948 H       1  UNL1        0.1552
     11 C         142.1848  139.3253  162.5581 C.ar    1  UNL1        0.0506
     12 C         141.8787  140.2382  161.4080 C.ar    1  UNL1        0.0147
     13 C         142.6046  140.0733  160.1057 C.ar    1  UNL1        0.0013
     14 C         143.6367  138.9954  159.9536 C.ar    1  UNL1        0.0001
     15 C         143.9428  138.0825  161.1038 C.ar    1  UNL1        0.0013
     16 C         143.2169  138.2474  162.4060 C.ar    1  UNL1        0.0147
     17 C         140.2265  140.1360  170.3205 C.3     1  UNL1        0.1139
     18 N         139.9983  140.6824  168.9422 N.pl3   1  UNL1       -0.2873
     19 C         140.3419  142.1099  168.6350 C.3     1  UNL1        0.1189
     20 C         141.1858  142.4375  167.4390 C.ar    1  UNL1       -0.0024
     21 C         140.5564  143.0453  166.2207 C.ar    1  UNL1       -0.0027
     22 C         141.4004  143.3729  165.0248 C.ar    1  UNL1        0.0036
     23 C         142.8738  143.0926  165.0471 C.ar    1  UNL1        0.0714
     24 C         143.5032  142.4848  166.2654 C.ar    1  UNL1        0.0036
     25 C         142.6593  142.1572  167.4613 C.ar    1  UNL1       -0.0027
     26 C         143.7178  143.4203  163.8510 C.3     1  UNL1        0.4186
     27 F         144.5617  143.7478  162.6551 F       1  UNL1       -0.1659
     28 F         143.5053  144.8838  164.1019 F       1  UNL1       -0.1659
     29 F         143.9303  141.9568  163.6002 F       1  UNL1       -0.1659
@<TRIPOS>BOND
     1    17    18    1
     2    18    19    1
     3    19    20    1
     4    20    21   ar
     5    21    22   ar
     6    22    23   ar
     7    23    26    1
     8    26    27    1
     9    26    28    1
    10    26    29    1
    11    23    24   ar
    12    24    25   ar
    13    18     1    1
    14     1     2   ar
    15     2     3   ar
    16     3     7    1
    17     7     8    2
    18     7     9   am
    19     9    11    1
    20    11    12   ar
    21    12    13   ar
    22    13    14   ar
    23    14    15   ar
    24    15    16   ar
    25     3     4   ar
    26     4     5   ar
    27     5     6   ar
    28    25    20   ar
    29     6     1   ar
    30    16    11   ar
    31     9    10    1
@<TRIPOS>MOLECULE
*****
 29 31 0 0 0
SMALL
GASTEIGER

@<TRIPOS>ATOM
      1 C         142.3967  143.6319  160.6261 C.ar    1  UNL1        0.1354
      2 C         141.8607  143.0064  161.8796 C.ar    1  UNL1        0.0581
      3 C         140.6804  143.6157  162.5765 C.ar    1  UNL1        0.1393
      4 N         140.0361  144.8506  162.0199 N.ar    1  UNL1       -0.2192
      5 C         140.5721  145.4763  160.7663 C.ar    1  UNL1        0.2002
      6 N         141.7524  144.8669  160.0694 N.ar    1  UNL1       -0.2090
      7 C         140.1444  142.9901  163.8301 C.2     1  UNL1        0.2674
      8 O         138.8812  143.5121  164.4479 O.2     1  UNL1       -0.2682
      9 N         140.8717  141.8425  164.4658 N.am    1  UNL1       -0.2791
     10 H         141.7008  141.5000  164.0603 H       1  UNL1        0.1552
     11 C         140.3358  141.2169  165.7193 C.ar    1  UNL1        0.0506
     12 C         140.7079  141.7822  167.0579 C.ar    1  UNL1        0.0147
     13 C         140.1719  141.1566  168.3115 C.ar    1  UNL1        0.0013
     14 C         139.2639  139.9657  168.2264 C.ar    1  UNL1        0.0001
     15 C         138.8918  139.4004  166.8877 C.ar    1  UNL1        0.0013
     16 C         139.4277  140.0260  165.6342 C.ar    1  UNL1        0.0147
     17 C         143.5498  142.8238  158.4427 C.3     1  UNL1        0.1139
     18 N         143.5770  143.0226  159.9292 N.pl3   1  UNL1       -0.2873
     19 C         144.7844  142.6120  160.7189 C.3     1  UNL1        0.1189
     20 C         144.6408  141.6567  161.8665 C.ar    1  UNL1       -0.0024
     21 C         144.1524  140.2596  161.6227 C.ar    1  UNL1       -0.0027
     22 C         144.0088  139.3044  162.7703 C.ar    1  UNL1        0.0036
     23 C         144.3536  139.7464  164.1616 C.ar    1  UNL1        0.0714
     24 C         144.8420  141.1435  164.4054 C.ar    1  UNL1        0.0036
     25 C         144.9856  142.0987  163.2578 C.ar    1  UNL1       -0.0027
     26 C         144.2100  138.7911  165.3092 C.3     1  UNL1        0.4186
     27 F         144.0665  137.8359  166.4568 F       1  UNL1       -0.1659
     28 F         142.7210  138.9677  165.2700 F       1  UNL1       -0.1659
     29 F         145.6991  138.6145  165.3485 F       1  UNL1       -0.1659
@<TRIPOS>BOND
     1    17    18    1
     2    18    19    1
     3    19    20    1
     4    20    21   ar
     5    21    22   ar
     6    22    23   ar
     7    23    26    1
     8    26    27    1
     9    26    28    1
    10    26    29    1
    11    23    24   ar
    12    24    25   ar
    13    18     1    1
    14     1     2   ar
    15     2     3   ar
    16     3     7    1
    17     7     8    2
    18     7     9   am
    19     9    11    1
    20    11    12   ar
    21    12    13   ar
    22    13    14   ar
    23    14    15   ar
    24    15    16   ar
    25     3     4   ar
    26     4     5   ar
    27     5     6   ar
    28    25    20   ar
    29     6     1   ar
    30    16    11   ar
    31     9    10    1
@<TRIPOS>MOLECULE
*****
 29 31 0 0 0
SMALL
GASTEIGER

@<TRIPOS>ATOM
      1 C         138.2245  139.5657  162.8748 C.ar    1  UNL1        0.1354
      2 C         138.4397  140.0600  164.2745 C.ar    1  UNL1        0.0581
      3 C         138.8800  139.1078  165.3467 C.ar    1  UNL1        0.1393
      4 N         139.1052  137.6615  165.0191 N.ar    1  UNL1       -0.2192
      5 C         138.8900  137.1672  163.6193 C.ar    1  UNL1        0.2002
      6 N         138.4497  138.1193  162.5471 N.ar    1  UNL1       -0.2090
      7 C         139.0952  139.6021  166.7465 C.2     1  UNL1        0.2674
      8 O         138.2211  139.1057  167.8599 O.2     1  UNL1       -0.2682
      9 N         140.1845  140.5927  167.0330 N.am    1  UNL1       -0.2791
     10 H         140.7582  140.9185  166.3022 H       1  UNL1        0.1552
     11 C         140.3997  141.0870  168.4327 C.ar    1  UNL1        0.0506
     12 C         140.2534  142.5472  168.7432 C.ar    1  UNL1        0.0147
     13 C         140.4686  143.0415  170.1430 C.ar    1  UNL1        0.0013
     14 C         140.8302  142.0757  171.2322 C.ar    1  UNL1        0.0001
     15 C         140.9765  140.6154  170.9216 C.ar    1  UNL1        0.0013
     16 C         140.7613  140.1212  169.5219 C.ar    1  UNL1        0.0147
     17 C         137.3743  139.9953  160.4576 C.3     1  UNL1        0.1139
     18 N         137.7842  140.5179  161.8026 N.pl3   1  UNL1       -0.2873
     19 C         137.7538  141.9925  162.0753 C.3     1  UNL1        0.1189
     20 C         139.0316  142.7332  162.3380 C.ar    1  UNL1       -0.0024
     21 C         140.2694  142.3916  161.5629 C.ar    1  UNL1       -0.0027
     22 C         141.5471  143.1322  161.8256 C.ar    1  UNL1        0.0036
     23 C         141.5868  144.2144  162.8635 C.ar    1  UNL1        0.0714
     24 C         140.3489  144.5561  163.6386 C.ar    1  UNL1        0.0036
     25 C         139.0713  143.8154  163.3759 C.ar    1  UNL1       -0.0027
     26 C         142.8645  144.9551  163.1261 C.3     1  UNL1        0.4186
     27 F         144.1422  145.6957  163.3888 F       1  UNL1       -0.1659
     28 F         142.1725  145.7781  164.1719 F       1  UNL1       -0.1659
     29 F         143.5566  144.1321  162.0804 F       1  UNL1       -0.1659
@<TRIPOS>BOND
     1    17    18    1
     2    18    19    1
     3    19    20    1
     4    20    21   ar
     5    21    22   ar
     6    22    23   ar
     7    23    26    1
     8    26    27    1
     9    26    28    1
    10    26    29    1
    11    23    24   ar
    12    24    25   ar
    13    18     1    1
    14     1     2   ar
    15     2     3   ar
    16     3     7    1
    17     7     8    2
    18     7     9   am
    19     9    11    1
    20    11    12   ar
    21    12    13   ar
    22    13    14   ar
    23    14    15   ar
    24    15    16   ar
    25     3     4   ar
    26     4     5   ar
    27     5     6   ar
    28    25    20   ar
    29     6     1   ar
    30    16    11   ar
    31     9    10    1
