@<TRIPOS>MOLECULE
*****
 34 38 0 0 0
SMALL
GASTEIGER

@<TRIPOS>ATOM
      1 N         144.9798  141.4187  163.3987 N.3     1  UNL1       -0.2704
      2 C         144.8361  142.0398  162.0410 C.3     1  UNL1        0.0722
      3 C         144.3011  141.2289  160.8982 C.3     1  UNL1        0.0175
      4 C         143.9097  139.7969  161.1131 C.3     1  UNL1        0.0060
      5 C         144.0534  139.1758  162.4709 C.3     1  UNL1        0.0175
      6 C         144.5884  139.9867  163.6137 C.3     1  UNL1        0.0722
      7 C         143.7660  140.4179  159.7553 C.3     1  UNL1        0.0216
      8 C         143.2309  139.6070  158.6125 C.3     1  UNL1        0.0922
      9 N         142.8395  138.1750  158.8274 N.pl3   1  UNL1       -0.2919
     10 C         142.9832  137.5539  160.1852 C.3     1  UNL1        0.0922
     11 C         143.5183  138.3649  161.3281 C.3     1  UNL1        0.0216
     12 C         142.3044  137.3641  157.6846 C.ar    1  UNL1        0.1517
     13 C         140.9870  137.7219  157.0630 C.ar    1  UNL1        0.0410
     14 C         140.4520  136.9110  155.9202 C.ar    1  UNL1        0.0651
     15 C         141.2344  135.7422  155.3989 C.ar    1  UNL1        0.2766
     16 O         140.6993  134.9313  154.2560 O.2     1  UNL1       -0.2655
     17 N         142.5518  135.3843  156.0204 N.ar    1  UNL1       -0.2134
     18 C         143.3342  134.2155  155.4991 C.3     1  UNL1        0.1571
     19 N         143.0868  136.1953  157.1632 N.ar    1  UNL1       -0.1517
     20 C         145.5149  142.2297  164.5416 C.3     1  UNL1        0.1063
     21 C         144.6388  143.2421  165.2178 C.3     1  UNL1        0.1483
     22 O         145.2456  144.2772  166.1180 O.3     1  UNL1       -0.3786
     23 H         144.5460  144.8488  166.4712 H       1  UNL1        0.2108
     24 C         143.3754  145.2095  163.3381 C.3     1  UNL1        0.0306
     25 C         142.5241  144.2032  164.0540 C.ar    1  UNL1       -0.0238
     26 C         143.1557  143.2195  164.9938 C.ar    1  UNL1        0.0015
     27 C         142.3043  142.2132  165.7097 C.ar    1  UNL1       -0.0020
     28 C         140.8214  142.1906  165.4858 C.ar    1  UNL1        0.0060
     29 C         140.1897  143.1743  164.5459 C.ar    1  UNL1        0.0748
     30 C         141.0411  144.1806  163.8300 C.ar    1  UNL1        0.0233
     31 C         140.1430  145.0193  162.9698 C.3     1  UNL1        0.2352
     32 O         138.7366  144.5313  163.1540 O.3     1  UNL1       -0.4404
     33 C         138.7655  143.3910  164.1281 C.2     1  UNL1        0.3413
     34 O         137.5785  142.6054  164.6014 O.2     1  UNL1       -0.2449
@<TRIPOS>BOND
     1    24    25    1
     2    25    26   ar
     3    26    21    1
     4    21    22    1
     5    21    20    1
     6    20     1    1
     7     1     2    1
     8     2     3    1
     9     3     4    1
    10     4     5    1
    11     5     6    1
    12     4     7    1
    13     7     8    1
    14     8     9    1
    15     9    12    1
    16    12    13   ar
    17    13    14   ar
    18    14    15   ar
    19    15    16    2
    20    15    17   ar
    21    17    18    1
    22    17    19   ar
    23     9    10    1
    24    10    11    1
    25    26    27   ar
    26    27    28   ar
    27    28    29   ar
    28    29    30   ar
    29    30    31    1
    30    31    32    1
    31    32    33    1
    32    33    34    2
    33    30    25   ar
    34     6     1    1
    35    19    12   ar
    36    33    29    1
    37    11     4    1
    38    22    23    1
@<TRIPOS>MOLECULE
*****
 34 38 0 0 0
SMALL
GASTEIGER

@<TRIPOS>ATOM
      1 N         145.0197  141.6543  163.3416 N.3     1  UNL1       -0.2704
      2 C         144.6378  140.2259  163.5938 C.3     1  UNL1        0.0722
      3 C         144.1010  139.3842  162.4743 C.3     1  UNL1        0.0175
      4 C         143.9460  139.9711  161.1025 C.3     1  UNL1        0.0060
      5 C         144.3279  141.3995  160.8504 C.3     1  UNL1        0.0175
      6 C         144.8648  142.2411  161.9699 C.3     1  UNL1        0.0722
      7 C         143.5641  138.5425  161.3547 C.3     1  UNL1        0.0216
      8 C         143.0273  137.7009  160.2351 C.3     1  UNL1        0.0922
      9 N         142.8723  138.2877  158.8634 N.pl3   1  UNL1       -0.2919
     10 C         143.2542  139.7162  158.6112 C.3     1  UNL1        0.0922
     11 C         143.7911  140.5579  159.7308 C.3     1  UNL1        0.0216
     12 C         142.3355  137.4460  157.7438 C.ar    1  UNL1        0.1517
     13 C         141.0745  137.8507  157.0394 C.ar    1  UNL1        0.0410
     14 C         140.5377  137.0090  155.9199 C.ar    1  UNL1        0.0651
     15 C         141.2619  135.7627  155.5048 C.ar    1  UNL1        0.2766
     16 O         140.7250  134.9209  154.3852 O.2     1  UNL1       -0.2655
     17 N         142.5228  135.3580  156.2092 N.ar    1  UNL1       -0.2134
     18 C         143.2470  134.1117  155.7941 C.3     1  UNL1        0.1571
     19 N         143.0596  136.1997  157.3287 N.ar    1  UNL1       -0.1517
     20 C         145.5566  142.4960  164.4612 C.3     1  UNL1        0.1063
     21 C         144.6845  143.5331  165.1045 C.3     1  UNL1        0.1483
     22 O         145.2249  144.3824  166.2166 O.3     1  UNL1       -0.3786
     23 H         144.5373  144.9967  166.5178 H       1  UNL1        0.2108
     24 C         142.4906  141.8247  166.2306 C.3     1  UNL1        0.0306
     25 C         142.1751  142.8668  165.1988 C.ar    1  UNL1       -0.0238
     26 C         143.2720  143.7210  164.6358 C.ar    1  UNL1        0.0015
     27 C         142.9566  144.7631  163.6041 C.ar    1  UNL1       -0.0020
     28 C         141.5442  144.9510  163.1353 C.ar    1  UNL1        0.0060
     29 C         140.4472  144.0968  163.6983 C.ar    1  UNL1        0.0748
     30 C         140.7627  143.0547  164.7301 C.ar    1  UNL1        0.0233
     31 C         139.4823  142.3668  165.1007 C.3     1  UNL1        0.2352
     32 O         138.3755  142.9837  164.2980 O.3     1  UNL1       -0.4404
     33 C         138.9718  144.0529  163.4313 C.2     1  UNL1        0.3413
     34 O         138.2241  144.9251  162.4668 O.2     1  UNL1       -0.2449
@<TRIPOS>BOND
     1    24    25    1
     2    25    26   ar
     3    26    21    1
     4    21    22    1
     5    21    20    1
     6    20     1    1
     7     1     2    1
     8     2     3    1
     9     3     4    1
    10     4     5    1
    11     5     6    1
    12     4     7    1
    13     7     8    1
    14     8     9    1
    15     9    12    1
    16    12    13   ar
    17    13    14   ar
    18    14    15   ar
    19    15    16    2
    20    15    17   ar
    21    17    18    1
    22    17    19   ar
    23     9    10    1
    24    10    11    1
    25    26    27   ar
    26    27    28   ar
    27    28    29   ar
    28    29    30   ar
    29    30    31    1
    30    31    32    1
    31    32    33    1
    32    33    34    2
    33    30    25   ar
    34     6     1    1
    35    19    12   ar
    36    33    29    1
    37    11     4    1
    38    22    23    1
@<TRIPOS>MOLECULE
*****
 34 38 0 0 0
SMALL
GASTEIGER

@<TRIPOS>ATOM
      1 N         141.9122  137.9306  157.6998 N.3     1  UNL1       -0.2704
      2 C         140.5097  138.3599  158.0138 C.3     1  UNL1        0.0722
      3 C         140.0954  138.5851  159.4377 C.3     1  UNL1        0.0175
      4 C         141.0835  138.3810  160.5476 C.3     1  UNL1        0.0060
      5 C         142.4860  137.9517  160.2336 C.3     1  UNL1        0.0175
      6 C         142.9004  137.7265  158.8097 C.3     1  UNL1        0.0722
      7 C         139.6809  138.8103  160.8617 C.3     1  UNL1        0.0216
      8 C         139.2666  139.0355  162.2856 C.3     1  UNL1        0.0922
      9 N         140.2547  138.8314  163.3955 N.pl3   1  UNL1       -0.2919
     10 C         141.6572  138.4021  163.0815 C.3     1  UNL1        0.0922
     11 C         142.0717  138.1769  161.6575 C.3     1  UNL1        0.0216
     12 C         139.8403  139.0566  164.8194 C.ar    1  UNL1        0.1517
     13 C         138.5144  138.5494  165.3038 C.ar    1  UNL1        0.0410
     14 C         138.1001  138.7746  166.7277 C.ar    1  UNL1        0.0651
     15 C         139.0116  139.5070  167.6672 C.ar    1  UNL1        0.2766
     16 O         138.5972  139.7322  169.0912 O.2     1  UNL1       -0.2655
     17 N         140.3375  140.0142  167.1829 N.ar    1  UNL1       -0.2134
     18 C         141.2491  140.7466  168.1224 C.3     1  UNL1        0.1571
     19 N         140.7519  139.7890  165.7590 N.ar    1  UNL1       -0.1517
     20 C         142.3266  137.7054  156.2758 C.3     1  UNL1        0.1063
     21 C         143.4516  136.7641  155.9620 C.3     1  UNL1        0.1483
     22 O         144.8127  137.3041  155.6369 O.3     1  UNL1       -0.3786
     23 H         145.4190  136.5677  155.4603 H       1  UNL1        0.2108
     24 C         142.2250  135.4225  153.5754 C.3     1  UNL1        0.0306
     25 C         142.6021  134.6121  154.7800 C.ar    1  UNL1       -0.0238
     26 C         143.2153  135.2828  155.9733 C.ar    1  UNL1        0.0015
     27 C         143.5924  134.4724  157.1778 C.ar    1  UNL1       -0.0020
     28 C         143.3562  132.9912  157.1892 C.ar    1  UNL1        0.0060
     29 C         142.7430  132.3204  155.9959 C.ar    1  UNL1        0.0748
     30 C         142.3659  133.1309  154.7913 C.ar    1  UNL1        0.0233
     31 C         141.7830  132.1996  153.7701 C.3     1  UNL1        0.2352
     32 O         141.7998  130.8136  154.3434 O.3     1  UNL1       -0.4404
     33 C         142.3931  130.8883  155.7191 C.2     1  UNL1        0.3413
     34 O         142.6002  129.7336  156.6538 O.2     1  UNL1       -0.2449
@<TRIPOS>BOND
     1    24    25    1
     2    25    26   ar
     3    26    21    1
     4    21    22    1
     5    21    20    1
     6    20     1    1
     7     1     2    1
     8     2     3    1
     9     3     4    1
    10     4     5    1
    11     5     6    1
    12     4     7    1
    13     7     8    1
    14     8     9    1
    15     9    12    1
    16    12    13   ar
    17    13    14   ar
    18    14    15   ar
    19    15    16    2
    20    15    17   ar
    21    17    18    1
    22    17    19   ar
    23     9    10    1
    24    10    11    1
    25    26    27   ar
    26    27    28   ar
    27    28    29   ar
    28    29    30   ar
    29    30    31    1
    30    31    32    1
    31    32    33    1
    32    33    34    2
    33    30    25   ar
    34     6     1    1
    35    19    12   ar
    36    33    29    1
    37    11     4    1
    38    22    23    1
@<TRIPOS>MOLECULE
*****
 34 38 0 0 0
SMALL
GASTEIGER

@<TRIPOS>ATOM
      1 N         142.6838  138.0294  161.1808 N.3     1  UNL1       -0.2704
      2 C         141.3099  137.8932  161.7672 C.3     1  UNL1        0.0722
      3 C         141.0289  138.4097  163.1471 C.3     1  UNL1        0.0175
      4 C         142.1218  139.0624  163.9406 C.3     1  UNL1        0.0060
      5 C         143.4956  139.1986  163.3543 C.3     1  UNL1        0.0175
      6 C         143.7767  138.6821  161.9744 C.3     1  UNL1        0.0722
      7 C         140.7478  138.9262  164.5271 C.3     1  UNL1        0.0216
      8 C         140.4668  139.4427  165.9070 C.3     1  UNL1        0.0922
      9 N         141.5596  140.0954  166.7005 N.pl3   1  UNL1       -0.2919
     10 C         142.9335  140.2316  166.1142 C.3     1  UNL1        0.0922
     11 C         143.2146  139.7151  164.7342 C.3     1  UNL1        0.0216
     12 C         141.2785  140.6119  168.0805 C.ar    1  UNL1        0.1517
     13 C         140.0891  140.1071  168.8424 C.ar    1  UNL1        0.0410
     14 C         139.8081  140.6237  170.2223 C.ar    1  UNL1        0.0651
     15 C         140.7165  141.6449  170.8403 C.ar    1  UNL1        0.2766
     16 O         140.4354  142.1614  172.2203 O.2     1  UNL1       -0.2655
     17 N         141.9058  142.1497  170.0785 N.ar    1  UNL1       -0.2134
     18 C         142.8142  143.1709  170.6965 C.3     1  UNL1        0.1571
     19 N         142.1869  141.6332  168.6985 N.ar    1  UNL1       -0.1517
     20 C         142.9649  137.5129  159.8008 C.3     1  UNL1        0.1063
     21 C         142.7691  138.4057  158.6115 C.3     1  UNL1        0.1483
     22 O         143.3166  138.0041  157.2740 O.3     1  UNL1       -0.3786
     23 H         143.1041  138.6875  156.6192 H       1  UNL1        0.2108
     24 C         139.7825  138.4610  158.3338 C.3     1  UNL1        0.0306
     25 C         140.5326  139.7279  158.6209 C.ar    1  UNL1       -0.0238
     26 C         142.0259  139.7003  158.7597 C.ar    1  UNL1        0.0015
     27 C         142.7760  140.9671  159.0468 C.ar    1  UNL1       -0.0020
     28 C         142.0328  142.2616  159.1950 C.ar    1  UNL1        0.0060
     29 C         140.5395  142.2892  159.0562 C.ar    1  UNL1        0.0748
     30 C         139.7894  141.0223  158.7691 C.ar    1  UNL1        0.0233
     31 C         138.3296  141.3568  158.6855 C.3     1  UNL1        0.2352
     32 O         138.1774  142.8304  158.9209 O.3     1  UNL1       -0.4404
     33 C         139.5433  143.4066  159.1500 C.2     1  UNL1        0.3413
     34 O         139.8577  144.8473  159.4247 O.2     1  UNL1       -0.2449
@<TRIPOS>BOND
     1    24    25    1
     2    25    26   ar
     3    26    21    1
     4    21    22    1
     5    21    20    1
     6    20     1    1
     7     1     2    1
     8     2     3    1
     9     3     4    1
    10     4     5    1
    11     5     6    1
    12     4     7    1
    13     7     8    1
    14     8     9    1
    15     9    12    1
    16    12    13   ar
    17    13    14   ar
    18    14    15   ar
    19    15    16    2
    20    15    17   ar
    21    17    18    1
    22    17    19   ar
    23     9    10    1
    24    10    11    1
    25    26    27   ar
    26    27    28   ar
    27    28    29   ar
    28    29    30   ar
    29    30    31    1
    30    31    32    1
    31    32    33    1
    32    33    34    2
    33    30    25   ar
    34     6     1    1
    35    19    12   ar
    36    33    29    1
    37    11     4    1
    38    22    23    1
@<TRIPOS>MOLECULE
*****
 34 38 0 0 0
SMALL
GASTEIGER

@<TRIPOS>ATOM
      1 N         141.7833  137.9141  157.3992 N.3     1  UNL1       -0.2704
      2 C         142.8330  137.8396  158.4681 C.3     1  UNL1        0.0722
      3 C         142.4594  138.0656  159.9031 C.3     1  UNL1        0.0175
      4 C         141.0361  138.3660  160.2693 C.3     1  UNL1        0.0060
      5 C         139.9864  138.4404  159.2004 C.3     1  UNL1        0.0175
      6 C         140.3600  138.2145  157.7654 C.3     1  UNL1        0.0722
      7 C         142.0859  138.2915  161.3383 C.3     1  UNL1        0.0216
      8 C         141.7123  138.5174  162.7733 C.3     1  UNL1        0.0922
      9 N         140.2890  138.8178  163.1395 N.pl3   1  UNL1       -0.2919
     10 C         139.2393  138.8923  162.0706 C.3     1  UNL1        0.0922
     11 C         139.6129  138.6664  160.6355 C.3     1  UNL1        0.0216
     12 C         139.9155  139.0437  164.5746 C.ar    1  UNL1        0.1517
     13 C         138.5283  138.7249  165.0476 C.ar    1  UNL1        0.0410
     14 C         138.1548  138.9509  166.4827 C.ar    1  UNL1        0.0651
     15 C         139.1686  139.4956  167.4447 C.ar    1  UNL1        0.2766
     16 O         138.7951  139.7215  168.8798 O.2     1  UNL1       -0.2655
     17 N         140.5558  139.8144  166.9717 N.ar    1  UNL1       -0.2134
     18 C         141.5696  140.3591  167.9337 C.3     1  UNL1        0.1571
     19 N         140.9293  139.5885  165.5366 N.ar    1  UNL1       -0.1517
     20 C         142.1568  137.6882  155.9641 C.3     1  UNL1        0.1063
     21 C         143.2242  136.6941  155.6145 C.3     1  UNL1        0.1483
     22 O         144.6702  137.0810  155.7116 O.3     1  UNL1       -0.3786
     23 H         145.2244  136.3283  155.4522 H       1  UNL1        0.2108
     24 C         143.4809  134.3818  157.5087 C.3     1  UNL1        0.0306
     25 C         142.9741  134.1569  156.1149 C.ar    1  UNL1       -0.0238
     26 C         142.8457  135.3130  155.1679 C.ar    1  UNL1        0.0015
     27 C         142.3389  135.0881  153.7741 C.ar    1  UNL1       -0.0020
     28 C         141.9604  133.7071  153.3274 C.ar    1  UNL1        0.0060
     29 C         142.0887  132.5511  154.2745 C.ar    1  UNL1        0.0748
     30 C         142.5956  132.7760  155.6682 C.ar    1  UNL1        0.0233
     31 C         142.6148  131.4523  156.3736 C.3     1  UNL1        0.2352
     32 O         142.1199  130.4094  155.4159 O.3     1  UNL1       -0.4404
     33 C         141.7947  131.0884  154.1186 C.2     1  UNL1        0.3413
     34 O         141.2681  130.4219  152.8823 O.2     1  UNL1       -0.2449
@<TRIPOS>BOND
     1    24    25    1
     2    25    26   ar
     3    26    21    1
     4    21    22    1
     5    21    20    1
     6    20     1    1
     7     1     2    1
     8     2     3    1
     9     3     4    1
    10     4     5    1
    11     5     6    1
    12     4     7    1
    13     7     8    1
    14     8     9    1
    15     9    12    1
    16    12    13   ar
    17    13    14   ar
    18    14    15   ar
    19    15    16    2
    20    15    17   ar
    21    17    18    1
    22    17    19   ar
    23     9    10    1
    24    10    11    1
    25    26    27   ar
    26    27    28   ar
    27    28    29   ar
    28    29    30   ar
    29    30    31    1
    30    31    32    1
    31    32    33    1
    32    33    34    2
    33    30    25   ar
    34     6     1    1
    35    19    12   ar
    36    33    29    1
    37    11     4    1
    38    22    23    1
@<TRIPOS>MOLECULE
*****
 34 38 0 0 0
SMALL
GASTEIGER

@<TRIPOS>ATOM
      1 N         141.7912  138.0631  158.9815 N.3     1  UNL1       -0.2704
      2 C         140.7437  138.9325  159.6114 C.3     1  UNL1        0.0722
      3 C         140.9129  139.4064  161.0244 C.3     1  UNL1        0.0175
      4 C         142.1296  139.0110  161.8075 C.3     1  UNL1        0.0060
      5 C         143.1771  138.1416  161.1776 C.3     1  UNL1        0.0175
      6 C         143.0079  137.6676  159.7646 C.3     1  UNL1        0.0722
      7 C         141.0820  139.8805  162.4375 C.3     1  UNL1        0.0216
      8 C         141.2512  140.3544  163.8506 C.3     1  UNL1        0.0922
      9 N         142.4679  139.9590  164.6337 N.pl3   1  UNL1       -0.2919
     10 C         143.5154  139.0896  164.0038 C.3     1  UNL1        0.0922
     11 C         143.3463  138.6156  162.5907 C.3     1  UNL1        0.0216
     12 C         142.6371  140.4330  166.0468 C.ar    1  UNL1        0.1517
     13 C         143.0042  141.8615  166.3198 C.ar    1  UNL1        0.0410
     14 C         143.1733  142.3354  167.7328 C.ar    1  UNL1        0.0651
     15 C         142.9753  141.3809  168.8729 C.ar    1  UNL1        0.2766
     16 O         143.1445  141.8549  170.2860 O.2     1  UNL1       -0.2655
     17 N         142.6082  139.9524  168.5998 N.ar    1  UNL1       -0.2134
     18 C         142.4103  138.9978  169.7398 C.3     1  UNL1        0.1571
     19 N         142.4391  139.4784  167.1868 N.ar    1  UNL1       -0.1517
     20 C         141.6220  137.5891  157.5684 C.3     1  UNL1        0.1063
     21 C         142.7509  136.8885  156.8721 C.3     1  UNL1        0.1483
     22 O         143.9090  137.6786  156.3389 O.3     1  UNL1       -0.3786
     23 H         144.5457  137.0775  155.9215 H       1  UNL1        0.2108
     24 C         141.0256  135.6443  154.7565 C.3     1  UNL1        0.0306
     25 C         141.8590  134.7756  155.6513 C.ar    1  UNL1       -0.0238
     26 C         142.7216  135.3976  156.7091 C.ar    1  UNL1        0.0015
     27 C         143.5550  134.5288  157.6039 C.ar    1  UNL1       -0.0020
     28 C         143.5258  133.0380  157.4410 C.ar    1  UNL1        0.0060
     29 C         142.6632  132.4160  156.3832 C.ar    1  UNL1        0.0748
     30 C         141.8298  133.2848  155.4884 C.ar    1  UNL1        0.0233
     31 C         141.0825  132.3930  154.5415 C.3     1  UNL1        0.2352
     32 O         141.4541  130.9731  154.8511 O.3     1  UNL1       -0.4404
     33 C         142.4310  130.9873  155.9893 C.2     1  UNL1        0.3413
     34 O         143.0644  129.7841  156.6226 O.2     1  UNL1       -0.2449
@<TRIPOS>BOND
     1    24    25    1
     2    25    26   ar
     3    26    21    1
     4    21    22    1
     5    21    20    1
     6    20     1    1
     7     1     2    1
     8     2     3    1
     9     3     4    1
    10     4     5    1
    11     5     6    1
    12     4     7    1
    13     7     8    1
    14     8     9    1
    15     9    12    1
    16    12    13   ar
    17    13    14   ar
    18    14    15   ar
    19    15    16    2
    20    15    17   ar
    21    17    18    1
    22    17    19   ar
    23     9    10    1
    24    10    11    1
    25    26    27   ar
    26    27    28   ar
    27    28    29   ar
    28    29    30   ar
    29    30    31    1
    30    31    32    1
    31    32    33    1
    32    33    34    2
    33    30    25   ar
    34     6     1    1
    35    19    12   ar
    36    33    29    1
    37    11     4    1
    38    22    23    1
@<TRIPOS>MOLECULE
*****
 34 38 0 0 0
SMALL
GASTEIGER

@<TRIPOS>ATOM
      1 N         139.9699  142.8651  160.7914 N.3     1  UNL1       -0.2704
      2 C         141.2881  142.1932  161.0379 C.3     1  UNL1        0.0722
      3 C         141.6660  140.9723  160.2527 C.3     1  UNL1        0.0175
      4 C         140.7257  140.4235  159.2208 C.3     1  UNL1        0.0060
      5 C         139.4075  141.0954  158.9743 C.3     1  UNL1        0.0175
      6 C         139.0296  142.3163  159.7595 C.3     1  UNL1        0.0722
      7 C         142.0439  139.7514  159.4674 C.3     1  UNL1        0.0216
      8 C         142.4218  138.5306  158.6821 C.3     1  UNL1        0.0922
      9 N         141.4816  137.9817  157.6503 N.pl3   1  UNL1       -0.2919
     10 C         140.1634  138.6537  157.4038 C.3     1  UNL1        0.0922
     11 C         139.7854  139.8746  158.1890 C.3     1  UNL1        0.0216
     12 C         141.8595  136.7608  156.8650 C.ar    1  UNL1        0.1517
     13 C         141.2759  136.5355  155.5018 C.ar    1  UNL1        0.0410
     14 C         141.6539  135.3146  154.7166 C.ar    1  UNL1        0.0651
     15 C         142.6155  134.3190  155.2947 C.ar    1  UNL1        0.2766
     16 O         142.9934  133.0981  154.5094 O.2     1  UNL1       -0.2655
     17 N         143.1991  134.5443  156.6579 N.ar    1  UNL1       -0.2134
     18 C         144.1607  133.5488  157.2360 C.3     1  UNL1        0.1571
     19 N         142.8211  135.7652  157.4431 N.ar    1  UNL1       -0.1517
     20 C         139.5919  144.0861  161.5766 C.3     1  UNL1        0.1063
     21 C         138.6246  143.9743  162.7176 C.3     1  UNL1        0.1483
     22 O         137.3269  144.7255  162.6770 O.3     1  UNL1       -0.3786
     23 H         136.8230  144.5442  163.4858 H       1  UNL1        0.2108
     24 C         137.3990  141.2480  162.9733 C.3     1  UNL1        0.0306
     25 C         138.3422  141.7481  164.0270 C.ar    1  UNL1       -0.0238
     26 C         138.9550  143.1112  163.8991 C.ar    1  UNL1        0.0015
     27 C         139.8983  143.6113  164.9528 C.ar    1  UNL1       -0.0020
     28 C         140.2287  142.7483  166.1343 C.ar    1  UNL1        0.0060
     29 C         139.6158  141.3852  166.2622 C.ar    1  UNL1        0.0748
     30 C         138.6726  140.8851  165.2085 C.ar    1  UNL1        0.0233
     31 C         138.2261  139.5082  165.6020 C.3     1  UNL1        0.2352
     32 O         138.8933  139.1573  166.8987 O.3     1  UNL1       -0.4404
     33 C         139.7522  140.3174  167.3068 C.2     1  UNL1        0.3413
     34 O         140.5989  140.3959  168.5425 O.2     1  UNL1       -0.2449
@<TRIPOS>BOND
     1    24    25    1
     2    25    26   ar
     3    26    21    1
     4    21    22    1
     5    21    20    1
     6    20     1    1
     7     1     2    1
     8     2     3    1
     9     3     4    1
    10     4     5    1
    11     5     6    1
    12     4     7    1
    13     7     8    1
    14     8     9    1
    15     9    12    1
    16    12    13   ar
    17    13    14   ar
    18    14    15   ar
    19    15    16    2
    20    15    17   ar
    21    17    18    1
    22    17    19   ar
    23     9    10    1
    24    10    11    1
    25    26    27   ar
    26    27    28   ar
    27    28    29   ar
    28    29    30   ar
    29    30    31    1
    30    31    32    1
    31    32    33    1
    32    33    34    2
    33    30    25   ar
    34     6     1    1
    35    19    12   ar
    36    33    29    1
    37    11     4    1
    38    22    23    1
@<TRIPOS>MOLECULE
*****
 34 38 0 0 0
SMALL
GASTEIGER

@<TRIPOS>ATOM
      1 N         138.6295  142.2184  163.0741 N.3     1  UNL1       -0.2704
      2 C         138.2076  141.5654  161.7914 C.3     1  UNL1        0.0722
      3 C         138.5459  142.2050  160.4775 C.3     1  UNL1        0.0175
      4 C         139.3060  143.4978  160.4464 C.3     1  UNL1        0.0060
      5 C         139.7279  144.1509  161.7291 C.3     1  UNL1        0.0175
      6 C         139.3896  143.5112  163.0430 C.3     1  UNL1        0.0722
      7 C         138.8841  142.8447  159.1635 C.3     1  UNL1        0.0216
      8 C         139.2224  143.4843  157.8496 C.3     1  UNL1        0.0922
      9 N         139.9825  144.7771  157.8185 N.pl3   1  UNL1       -0.2919
     10 C         140.4044  145.4302  159.1012 C.3     1  UNL1        0.0922
     11 C         140.0661  144.7905  160.4152 C.3     1  UNL1        0.0216
     12 C         140.3208  145.4167  156.5045 C.ar    1  UNL1        0.1517
     13 C         141.1853  144.6903  155.5172 C.ar    1  UNL1        0.0410
     14 C         141.5235  145.3299  154.2033 C.ar    1  UNL1        0.0651
     15 C         140.9972  146.6961  153.8767 C.ar    1  UNL1        0.2766
     16 O         141.3355  147.3357  152.5627 O.2     1  UNL1       -0.2655
     17 N         140.1327  147.4225  154.8640 N.ar    1  UNL1       -0.2134
     18 C         139.6064  148.7887  154.5374 C.3     1  UNL1        0.1571
     19 N         139.7945  146.7829  156.1779 N.ar    1  UNL1       -0.1517
     20 C         138.2912  141.5788  164.3881 C.3     1  UNL1        0.1063
     21 C         139.2887  140.6880  165.0675 C.3     1  UNL1        0.1483
     22 O         139.7809  139.4503  164.3778 O.3     1  UNL1       -0.3786
     23 H         140.4160  138.9921  164.9502 H       1  UNL1        0.2108
     24 C         138.3465  139.1320  167.4531 C.3     1  UNL1        0.0306
     25 C         139.3228  140.2570  167.6294 C.ar    1  UNL1       -0.0238
     26 C         139.7939  141.0350  166.4366 C.ar    1  UNL1        0.0015
     27 C         140.7703  142.1600  166.6129 C.ar    1  UNL1       -0.0020
     28 C         141.2756  142.5070  167.9819 C.ar    1  UNL1        0.0060
     29 C         140.8045  141.7290  169.1746 C.ar    1  UNL1        0.0748
     30 C         139.8281  140.6040  168.9984 C.ar    1  UNL1        0.0233
     31 C         139.5452  140.0197  170.3506 C.3     1  UNL1        0.2352
     32 O         140.3466  140.7836  171.3626 O.3     1  UNL1       -0.4404
     33 C         141.1249  141.8400  170.6358 C.2     1  UNL1        0.3413
     34 O         142.0596  142.8331  171.2605 O.2     1  UNL1       -0.2449
@<TRIPOS>BOND
     1    24    25    1
     2    25    26   ar
     3    26    21    1
     4    21    22    1
     5    21    20    1
     6    20     1    1
     7     1     2    1
     8     2     3    1
     9     3     4    1
    10     4     5    1
    11     5     6    1
    12     4     7    1
    13     7     8    1
    14     8     9    1
    15     9    12    1
    16    12    13   ar
    17    13    14   ar
    18    14    15   ar
    19    15    16    2
    20    15    17   ar
    21    17    18    1
    22    17    19   ar
    23     9    10    1
    24    10    11    1
    25    26    27   ar
    26    27    28   ar
    27    28    29   ar
    28    29    30   ar
    29    30    31    1
    30    31    32    1
    31    32    33    1
    32    33    34    2
    33    30    25   ar
    34     6     1    1
    35    19    12   ar
    36    33    29    1
    37    11     4    1
    38    22    23    1
@<TRIPOS>MOLECULE
*****
 34 38 0 0 0
SMALL
GASTEIGER

@<TRIPOS>ATOM
      1 N         139.4247  139.7892  161.5382 N.3     1  UNL1       -0.2704
      2 C         140.8001  140.1974  161.9761 C.3     1  UNL1        0.0722
      3 C         141.8020  140.6649  160.9624 C.3     1  UNL1        0.0175
      4 C         141.4286  140.7242  159.5109 C.3     1  UNL1        0.0060
      5 C         140.0533  140.3160  159.0729 C.3     1  UNL1        0.0175
      6 C         139.0514  139.8485  160.0866 C.3     1  UNL1        0.0722
      7 C         142.8040  141.1324  159.9488 C.3     1  UNL1        0.0216
      8 C         143.8060  141.5999  158.9351 C.3     1  UNL1        0.0922
      9 N         143.4326  141.6592  157.4836 N.pl3   1  UNL1       -0.2919
     10 C         142.0573  141.2510  157.0456 C.3     1  UNL1        0.0922
     11 C         141.0552  140.7835  158.0593 C.3     1  UNL1        0.0216
     12 C         144.4346  142.1267  156.4699 C.ar    1  UNL1        0.1517
     13 C         143.9801  142.8983  155.2666 C.ar    1  UNL1        0.0410
     14 C         144.9821  143.3658  154.2530 C.ar    1  UNL1        0.0651
     15 C         146.4386  143.0617  154.4427 C.ar    1  UNL1        0.2766
     16 O         147.4407  143.5292  153.4291 O.2     1  UNL1       -0.2655
     17 N         146.8932  142.2902  155.6461 N.ar    1  UNL1       -0.2134
     18 C         148.3497  141.9861  155.8358 C.3     1  UNL1        0.1571
     19 N         145.8912  141.8227  156.6596 N.ar    1  UNL1       -0.1517
     20 C         138.4227  139.3217  162.5518 C.3     1  UNL1        0.1063
     21 C         137.8785  140.2826  163.5669 C.3     1  UNL1        0.1483
     22 O         136.8055  141.2560  163.1785 O.3     1  UNL1       -0.3786
     23 H         136.5688  141.7997  163.9461 H       1  UNL1        0.2108
     24 C         139.6780  142.4892  164.5118 C.3     1  UNL1        0.0306
     25 C         139.3071  141.3733  165.4430 C.ar    1  UNL1       -0.0238
     26 C         138.4074  140.2700  164.9706 C.ar    1  UNL1        0.0015
     27 C         138.0365  139.1541  165.9018 C.ar    1  UNL1       -0.0020
     28 C         138.5653  139.1415  167.3054 C.ar    1  UNL1        0.0060
     29 C         139.4650  140.2448  167.7778 C.ar    1  UNL1        0.0748
     30 C         139.8359  141.3607  166.8466 C.ar    1  UNL1        0.0233
     31 C         140.7349  142.3044  167.5890 C.3     1  UNL1        0.2352
     32 O         140.9197  141.7718  168.9790 O.3     1  UNL1       -0.4404
     33 C         140.1348  140.4989  169.0957 C.2     1  UNL1        0.3413
     34 O         140.0369  139.6322  170.3160 O.2     1  UNL1       -0.2449
@<TRIPOS>BOND
     1    24    25    1
     2    25    26   ar
     3    26    21    1
     4    21    22    1
     5    21    20    1
     6    20     1    1
     7     1     2    1
     8     2     3    1
     9     3     4    1
    10     4     5    1
    11     5     6    1
    12     4     7    1
    13     7     8    1
    14     8     9    1
    15     9    12    1
    16    12    13   ar
    17    13    14   ar
    18    14    15   ar
    19    15    16    2
    20    15    17   ar
    21    17    18    1
    22    17    19   ar
    23     9    10    1
    24    10    11    1
    25    26    27   ar
    26    27    28   ar
    27    28    29   ar
    28    29    30   ar
    29    30    31    1
    30    31    32    1
    31    32    33    1
    32    33    34    2
    33    30    25   ar
    34     6     1    1
    35    19    12   ar
    36    33    29    1
    37    11     4    1
    38    22    23    1
