@<TRIPOS>MOLECULE
*****
 30 33 0 0 0
SMALL
GASTEIGER

@<TRIPOS>ATOM
      1 C         141.9567  140.4125  159.7567 C.ar    1  UNL1        0.1030
      2 C         141.9950  140.1798  158.2754 C.ar    1  UNL1        0.0414
      3 C         140.8586  139.4731  157.5978 C.ar    1  UNL1        0.1034
      4 N         139.6840  138.9992  158.4014 N.ar    1  UNL1       -0.2120
      5 C         139.6458  139.2320  159.8827 C.ar    1  UNL1        0.2207
      6 N         140.7821  139.9387  160.5604 N.ar    1  UNL1       -0.2120
      7 C         145.6564  141.7421  163.2818 C.3     1  UNL1        0.0718
      8 C         144.7937  141.7304  162.0548 C.ar    1  UNL1        0.1208
      9 N         144.8899  142.6831  160.9001 N.ar    1  UNL1       -0.2293
     10 C         143.8389  142.3053  159.8987 C.ar    1  UNL1        0.1188
     11 C         143.0931  141.1192  160.4345 C.ar    1  UNL1        0.0981
     12 N         143.6832  140.7639  161.7670 N.ar    1  UNL1       -0.3155
     13 C         143.2406  139.6395  162.6557 C.3     1  UNL1        0.0868
     14 C         142.4200  139.9278  163.8778 C.3     1  UNL1        0.0245
     15 C         143.6186  138.2267  162.3223 C.3     1  UNL1        0.0245
     16 N         138.4712  138.7581  160.6863 N.pl3   1  UNL1       -0.2825
     17 H         137.6857  138.3763  160.2319 H       1  UNL1        0.1551
     18 C         138.4934  138.8660  162.1822 C.ar    1  UNL1        0.0505
     19 C         138.9628  137.7071  163.0109 C.ar    1  UNL1        0.0148
     20 C         138.9850  137.8149  164.5068 C.ar    1  UNL1        0.0058
     21 C         138.5377  139.0817  165.1741 C.ar    1  UNL1        0.0534
     22 C         138.0683  140.2405  164.3455 C.ar    1  UNL1        0.0058
     23 C         138.0461  140.1327  162.8495 C.ar    1  UNL1        0.0148
     24 C         138.5599  139.1895  166.6701 C.2     1  UNL1        0.2458
     25 O         137.5824  138.4039  167.4933 O.2     1  UNL1       -0.2701
     26 N         139.5595  140.0828  167.3430 N.am    1  UNL1       -0.3025
     27 H         140.2010  140.5984  166.8027 H       1  UNL1        0.1497
     28 C         139.5816  140.1906  168.8389 C.3     1  UNL1        0.0720
     29 C         138.8616  140.4109  170.1362 C.3     1  UNL1        0.0213
     30 C         140.3400  140.1570  170.1326 C.3     1  UNL1        0.0213
@<TRIPOS>BOND
     1     7     8    1
     2     8     9   ar
     3     9    10   ar
     4    10    11   ar
     5    11     1    1
     6     1     2   ar
     7     2     3   ar
     8     3     4   ar
     9     4     5   ar
    10     5    16    1
    11    16    18    1
    12    18    19   ar
    13    19    20   ar
    14    20    21   ar
    15    21    24    1
    16    24    25    2
    17    24    26   am
    18    26    28    1
    19    28    29    1
    20    29    30    1
    21    21    22   ar
    22    22    23   ar
    23     5     6   ar
    24    11    12   ar
    25    12    13    1
    26    13    14    1
    27    13    15    1
    28    12     8   ar
    29     6     1   ar
    30    23    18   ar
    31    30    28    1
    32    16    17    1
    33    26    27    1
@<TRIPOS>MOLECULE
*****
 30 33 0 0 0
SMALL
GASTEIGER

@<TRIPOS>ATOM
      1 C         141.1139  140.9190  159.6288 C.ar    1  UNL1        0.1030
      2 C         140.6588  141.0654  158.2071 C.ar    1  UNL1        0.0414
      3 C         139.4385  140.3343  157.7312 C.ar    1  UNL1        0.1034
      4 N         138.6734  139.4568  158.6771 N.ar    1  UNL1       -0.2120
      5 C         139.1286  139.3104  160.0988 C.ar    1  UNL1        0.2207
      6 N         140.3488  140.0415  160.5747 N.ar    1  UNL1       -0.2120
      7 C         144.4100  143.7974  162.5838 C.3     1  UNL1        0.0718
      8 C         143.8492  142.9731  161.4630 C.ar    1  UNL1        0.1208
      9 N         144.5747  142.5771  160.2112 N.ar    1  UNL1       -0.2293
     10 C         143.6384  141.7594  159.3718 C.ar    1  UNL1        0.1188
     11 C         142.3342  141.6501  160.1048 C.ar    1  UNL1        0.0981
     12 N         142.4645  142.4002  161.3972 N.ar    1  UNL1       -0.3155
     13 C         141.3975  142.5510  162.4406 C.3     1  UNL1        0.0868
     14 C         141.4388  141.7109  163.6825 C.3     1  UNL1        0.0245
     15 C         140.2891  143.5420  162.2420 C.3     1  UNL1        0.0245
     16 N         138.3635  138.4329  161.0447 N.pl3   1  UNL1       -0.2825
     17 H         137.8050  137.7014  160.6950 H       1  UNL1        0.1551
     18 C         138.4492  138.6699  162.5233 C.ar    1  UNL1        0.0505
     19 C         138.0115  139.9841  163.0989 C.ar    1  UNL1        0.0148
     20 C         138.0973  140.2211  164.5776 C.ar    1  UNL1        0.0058
     21 C         138.6207  139.1439  165.4807 C.ar    1  UNL1        0.0534
     22 C         139.0585  137.8298  164.9052 C.ar    1  UNL1        0.0058
     23 C         138.9727  137.5927  163.4264 C.ar    1  UNL1        0.0148
     24 C         138.7065  139.3810  166.9594 C.2     1  UNL1        0.2458
     25 O         137.7656  138.6726  167.8883 O.2     1  UNL1       -0.2701
     26 N         139.7331  140.3264  167.5091 N.am    1  UNL1       -0.3025
     27 H         140.3506  140.7914  166.8994 H       1  UNL1        0.1497
     28 C         139.8188  140.5634  168.9878 C.3     1  UNL1        0.0720
     29 C         139.5728  141.4409  170.1791 C.3     1  UNL1        0.0213
     30 C         140.2133  140.0964  170.3575 C.3     1  UNL1        0.0213
@<TRIPOS>BOND
     1     7     8    1
     2     8     9   ar
     3     9    10   ar
     4    10    11   ar
     5    11     1    1
     6     1     2   ar
     7     2     3   ar
     8     3     4   ar
     9     4     5   ar
    10     5    16    1
    11    16    18    1
    12    18    19   ar
    13    19    20   ar
    14    20    21   ar
    15    21    24    1
    16    24    25    2
    17    24    26   am
    18    26    28    1
    19    28    29    1
    20    29    30    1
    21    21    22   ar
    22    22    23   ar
    23     5     6   ar
    24    11    12   ar
    25    12    13    1
    26    13    14    1
    27    13    15    1
    28    12     8   ar
    29     6     1   ar
    30    23    18   ar
    31    30    28    1
    32    16    17    1
    33    26    27    1
@<TRIPOS>MOLECULE
*****
 30 33 0 0 0
SMALL
GASTEIGER

@<TRIPOS>ATOM
      1 C         142.3242  141.6519  159.8247 C.ar    1  UNL1        0.1030
      2 C         142.7523  141.4121  158.4073 C.ar    1  UNL1        0.0414
      3 C         143.6255  140.2384  158.0759 C.ar    1  UNL1        0.1034
      4 N         144.0706  139.3044  159.1620 N.ar    1  UNL1       -0.2120
      5 C         143.6425  139.5442  160.5794 C.ar    1  UNL1        0.2207
      6 N         142.7693  140.7180  160.9108 N.ar    1  UNL1       -0.2120
      7 C         140.2297  145.8064  162.3216 C.3     1  UNL1        0.0718
      8 C         140.4883  144.7353  161.3038 C.ar    1  UNL1        0.1208
      9 N         139.7263  144.5286  160.0283 N.ar    1  UNL1       -0.2293
     10 C         140.3213  143.3484  159.3191 C.ar    1  UNL1        0.1188
     11 C         141.4510  142.8257  160.1561 C.ar    1  UNL1        0.0981
     12 N         141.5542  143.6829  161.3827 N.ar    1  UNL1       -0.3155
     13 C         142.5486  143.5169  162.4933 C.3     1  UNL1        0.0868
     14 C         142.1344  142.8671  163.7802 C.3     1  UNL1        0.0245
     15 C         143.9576  144.0007  162.3170 C.3     1  UNL1        0.0245
     16 N         144.0876  138.6102  161.6655 N.pl3   1  UNL1       -0.2825
     17 H         144.7021  137.8699  161.4569 H       1  UNL1        0.1551
     18 C         143.5964  138.8042  163.0695 C.ar    1  UNL1        0.0505
     19 C         142.3460  138.1144  163.5287 C.ar    1  UNL1        0.0148
     20 C         141.8549  138.3084  164.9326 C.ar    1  UNL1        0.0058
     21 C         142.6140  139.1922  165.8774 C.ar    1  UNL1        0.0534
     22 C         143.8643  139.8820  165.4182 C.ar    1  UNL1        0.0058
     23 C         144.3555  139.6880  164.0142 C.ar    1  UNL1        0.0148
     24 C         142.1227  139.3861  167.2814 C.2     1  UNL1        0.2458
     25 O         142.9797  138.9700  168.4400 O.2     1  UNL1       -0.2701
     26 N         140.7746  139.9962  167.5267 N.am    1  UNL1       -0.3025
     27 H         140.2121  140.2694  166.7663 H       1  UNL1        0.1497
     28 C         140.2834  140.1902  168.9306 C.3     1  UNL1        0.0720
     29 C         140.5578  140.2743  170.4029 C.3     1  UNL1        0.0213
     30 C         139.1582  140.4419  169.8901 C.3     1  UNL1        0.0213
@<TRIPOS>BOND
     1     7     8    1
     2     8     9   ar
     3     9    10   ar
     4    10    11   ar
     5    11     1    1
     6     1     2   ar
     7     2     3   ar
     8     3     4   ar
     9     4     5   ar
    10     5    16    1
    11    16    18    1
    12    18    19   ar
    13    19    20   ar
    14    20    21   ar
    15    21    24    1
    16    24    25    2
    17    24    26   am
    18    26    28    1
    19    28    29    1
    20    29    30    1
    21    21    22   ar
    22    22    23   ar
    23     5     6   ar
    24    11    12   ar
    25    12    13    1
    26    13    14    1
    27    13    15    1
    28    12     8   ar
    29     6     1   ar
    30    23    18   ar
    31    30    28    1
    32    16    17    1
    33    26    27    1
@<TRIPOS>MOLECULE
*****
 30 33 0 0 0
SMALL
GASTEIGER

@<TRIPOS>ATOM
      1 C         142.4493  140.7711  163.0190 C.ar    1  UNL1        0.1030
      2 C         143.8023  140.7489  162.3718 C.ar    1  UNL1        0.0414
      3 C         145.0010  141.2482  163.1227 C.ar    1  UNL1        0.1034
      4 N         144.8467  141.7695  164.5206 N.ar    1  UNL1       -0.2120
      5 C         143.4937  141.7917  165.1678 C.ar    1  UNL1        0.2207
      6 N         142.2950  141.2924  164.4170 N.ar    1  UNL1       -0.2120
      7 C         138.0601  138.1213  161.7559 C.3     1  UNL1        0.0718
      8 C         139.2330  139.0539  161.6876 C.ar    1  UNL1        0.1208
      9 N         139.5785  139.9534  160.5379 N.ar    1  UNL1       -0.2293
     10 C         140.8253  140.7061  160.8968 C.ar    1  UNL1        0.1188
     11 C         141.2505  140.2718  162.2682 C.ar    1  UNL1        0.0981
     12 N         140.2664  139.2507  162.7569 N.ar    1  UNL1       -0.3155
     13 C         140.3082  138.5495  164.0823 C.3     1  UNL1        0.0868
     14 C         139.5987  139.1386  165.2652 C.3     1  UNL1        0.0245
     15 C         141.0597  137.2591  164.2246 C.3     1  UNL1        0.0245
     16 N         143.3395  142.3130  166.5658 N.pl3   1  UNL1       -0.2825
     17 H         143.8982  143.0618  166.8764 H       1  UNL1        0.1551
     18 C         142.3340  141.6937  167.4906 C.ar    1  UNL1        0.0505
     19 C         141.0710  142.4299  167.8270 C.ar    1  UNL1        0.0148
     20 C         140.0655  141.8105  168.7518 C.ar    1  UNL1        0.0058
     21 C         140.3228  140.4549  169.3402 C.ar    1  UNL1        0.0534
     22 C         141.5857  139.7187  169.0037 C.ar    1  UNL1        0.0058
     23 C         142.5913  140.3381  168.0789 C.ar    1  UNL1        0.0148
     24 C         139.3172  139.8355  170.2650 C.2     1  UNL1        0.2458
     25 O         139.7338  139.3880  171.6347 O.2     1  UNL1       -0.2701
     26 N         137.8951  139.6637  169.8200 N.am    1  UNL1       -0.3025
     27 H         137.6217  139.9574  168.9210 H       1  UNL1        0.1497
     28 C         136.8896  139.0443  170.7448 C.3     1  UNL1        0.0720
     29 C         136.2797  137.8264  171.3730 C.3     1  UNL1        0.0213
     30 C         135.7578  139.1895  171.7185 C.3     1  UNL1        0.0213
@<TRIPOS>BOND
     1     7     8    1
     2     8     9   ar
     3     9    10   ar
     4    10    11   ar
     5    11     1    1
     6     1     2   ar
     7     2     3   ar
     8     3     4   ar
     9     4     5   ar
    10     5    16    1
    11    16    18    1
    12    18    19   ar
    13    19    20   ar
    14    20    21   ar
    15    21    24    1
    16    24    25    2
    17    24    26   am
    18    26    28    1
    19    28    29    1
    20    29    30    1
    21    21    22   ar
    22    22    23   ar
    23     5     6   ar
    24    11    12   ar
    25    12    13    1
    26    13    14    1
    27    13    15    1
    28    12     8   ar
    29     6     1   ar
    30    23    18   ar
    31    30    28    1
    32    16    17    1
    33    26    27    1
@<TRIPOS>MOLECULE
*****
 30 33 0 0 0
SMALL
GASTEIGER

@<TRIPOS>ATOM
      1 C         139.9346  141.2856  159.9363 C.ar    1  UNL1        0.1030
      2 C         139.6869  140.7046  158.5758 C.ar    1  UNL1        0.0414
      3 C         139.4941  139.2257  158.4157 C.ar    1  UNL1        0.1034
      4 N         139.5491  138.3279  159.6160 N.ar    1  UNL1       -0.2120
      5 C         139.7969  138.9089  160.9765 C.ar    1  UNL1        0.2207
      6 N         139.9896  140.3878  161.1366 N.ar    1  UNL1       -0.2120
      7 C         139.9588  146.1547  161.9792 C.3     1  UNL1        0.0718
      8 C         140.1385  145.0026  161.0355 C.ar    1  UNL1        0.1208
      9 N         140.7096  145.0782  159.6505 N.ar    1  UNL1       -0.2293
     10 C         140.7027  143.6950  159.0702 C.ar    1  UNL1        0.1188
     11 C         140.1274  142.7646  160.0965 C.ar    1  UNL1        0.0981
     12 N         139.7787  143.5727  161.3111 N.ar    1  UNL1       -0.3155
     13 C         139.1760  143.0439  162.5788 C.3     1  UNL1        0.0868
     14 C         140.0528  142.7454  163.7587 C.3     1  UNL1        0.0245
     15 C         137.6963  142.8135  162.6666 C.3     1  UNL1        0.0245
     16 N         139.8519  138.0110  162.1768 N.pl3   1  UNL1       -0.2825
     17 H         139.9123  137.0354  162.0594 H       1  UNL1        0.1551
     18 C         139.8148  138.5995  163.5560 C.ar    1  UNL1        0.0505
     19 C         138.5167  139.0858  164.1293 C.ar    1  UNL1        0.0148
     20 C         138.4797  139.6743  165.5085 C.ar    1  UNL1        0.0058
     21 C         139.7406  139.7767  166.3144 C.ar    1  UNL1        0.0534
     22 C         141.0387  139.2905  165.7412 C.ar    1  UNL1        0.0058
     23 C         141.0758  138.7019  164.3619 C.ar    1  UNL1        0.0148
     24 C         139.7035  140.3653  167.6937 C.2     1  UNL1        0.2458
     25 O         138.9838  139.6470  168.7965 O.2     1  UNL1       -0.2701
     26 N         140.3861  141.6720  167.9701 N.am    1  UNL1       -0.3025
     27 H         140.8584  142.1434  167.2463 H       1  UNL1        0.1497
     28 C         140.3489  142.2605  169.3493 C.3     1  UNL1        0.0720
     29 C         140.1272  143.4357  170.2546 C.3     1  UNL1        0.0213
     30 C         140.5063  142.1046  170.8328 C.3     1  UNL1        0.0213
@<TRIPOS>BOND
     1     7     8    1
     2     8     9   ar
     3     9    10   ar
     4    10    11   ar
     5    11     1    1
     6     1     2   ar
     7     2     3   ar
     8     3     4   ar
     9     4     5   ar
    10     5    16    1
    11    16    18    1
    12    18    19   ar
    13    19    20   ar
    14    20    21   ar
    15    21    24    1
    16    24    25    2
    17    24    26   am
    18    26    28    1
    19    28    29    1
    20    29    30    1
    21    21    22   ar
    22    22    23   ar
    23     5     6   ar
    24    11    12   ar
    25    12    13    1
    26    13    14    1
    27    13    15    1
    28    12     8   ar
    29     6     1   ar
    30    23    18   ar
    31    30    28    1
    32    16    17    1
    33    26    27    1
@<TRIPOS>MOLECULE
*****
 30 33 0 0 0
SMALL
GASTEIGER

@<TRIPOS>ATOM
      1 C         141.4788  140.8693  167.4097 C.ar    1  UNL1        0.1030
      2 C         141.6548  140.8930  168.8991 C.ar    1  UNL1        0.0414
      3 C         142.7188  141.7524  169.5150 C.ar    1  UNL1        0.1034
      4 N         143.6068  142.5881  168.6414 N.ar    1  UNL1       -0.2120
      5 C         143.4308  142.5643  167.1520 C.ar    1  UNL1        0.2207
      6 N         142.3668  141.7049  166.5361 N.ar    1  UNL1       -0.2120
      7 C         138.8863  137.7099  164.0662 C.3     1  UNL1        0.0718
      8 C         139.2231  138.5577  165.2570 C.ar    1  UNL1        0.1208
      9 N         138.3317  138.8170  166.4352 N.ar    1  UNL1       -0.2293
     10 C         139.0682  139.7145  167.3850 C.ar    1  UNL1        0.1188
     11 C         140.4148  140.0098  166.7938 C.ar    1  UNL1        0.0981
     12 N         140.5105  139.2949  165.4787 N.ar    1  UNL1       -0.3155
     13 C         141.6871  139.3137  164.5485 C.3     1  UNL1        0.0868
     14 C         141.6679  140.1916  163.3324 C.3     1  UNL1        0.0245
     15 C         142.8831  138.4546  164.8344 C.3     1  UNL1        0.0245
     16 N         144.3188  143.4000  166.2784 N.pl3   1  UNL1       -0.2825
     17 H         144.9853  143.9999  166.6846 H       1  UNL1        0.1551
     18 C         144.1912  143.3216  164.7859 C.ar    1  UNL1        0.0505
     19 C         143.2699  144.2579  164.0616 C.ar    1  UNL1        0.0148
     20 C         143.1423  144.1795  162.5692 C.ar    1  UNL1        0.0058
     21 C         143.9361  143.1648  161.8009 C.ar    1  UNL1        0.0534
     22 C         144.8573  142.2284  162.5250 C.ar    1  UNL1        0.0058
     23 C         144.9849  142.3068  164.0176 C.ar    1  UNL1        0.0148
     24 C         143.8085  143.0864  160.3083 C.2     1  UNL1        0.2458
     25 O         142.8662  144.0038  159.5869 O.2     1  UNL1       -0.2701
     26 N         144.6231  142.0906  159.5372 N.am    1  UNL1       -0.3025
     27 H         145.2416  141.4884  160.0107 H       1  UNL1        0.1497
     28 C         144.4955  142.0122  158.0447 C.3     1  UNL1        0.0720
     29 C         143.6992  141.6499  156.8263 C.3     1  UNL1        0.0213
     30 C         145.0708  142.2388  156.6781 C.3     1  UNL1        0.0213
@<TRIPOS>BOND
     1     7     8    1
     2     8     9   ar
     3     9    10   ar
     4    10    11   ar
     5    11     1    1
     6     1     2   ar
     7     2     3   ar
     8     3     4   ar
     9     4     5   ar
    10     5    16    1
    11    16    18    1
    12    18    19   ar
    13    19    20   ar
    14    20    21   ar
    15    21    24    1
    16    24    25    2
    17    24    26   am
    18    26    28    1
    19    28    29    1
    20    29    30    1
    21    21    22   ar
    22    22    23   ar
    23     5     6   ar
    24    11    12   ar
    25    12    13    1
    26    13    14    1
    27    13    15    1
    28    12     8   ar
    29     6     1   ar
    30    23    18   ar
    31    30    28    1
    32    16    17    1
    33    26    27    1
@<TRIPOS>MOLECULE
*****
 30 33 0 0 0
SMALL
GASTEIGER

@<TRIPOS>ATOM
      1 C         142.6036  139.9978  166.0235 C.ar    1  UNL1        0.1030
      2 C         143.4617  138.7720  165.9183 C.ar    1  UNL1        0.0414
      3 C         144.7187  138.8045  165.1005 C.ar    1  UNL1        0.1034
      4 N         145.1176  140.0627  164.3879 N.ar    1  UNL1       -0.2120
      5 C         144.2595  141.2885  164.4931 C.ar    1  UNL1        0.2207
      6 N         143.0025  141.2560  165.3109 N.ar    1  UNL1       -0.2120
      7 C         139.2050  140.5168  170.0312 C.3     1  UNL1        0.0718
      8 C         139.7843  140.2039  168.6834 C.ar    1  UNL1        0.1208
      9 N         139.0397  139.6270  167.5160 N.ar    1  UNL1       -0.2293
     10 C         140.0052  139.4796  166.3775 C.ar    1  UNL1        0.1188
     11 C         141.3465  139.9654  166.8413 C.ar    1  UNL1        0.0981
     12 N         141.2099  140.4130  168.2664 N.ar    1  UNL1       -0.3155
     13 C         142.3065  140.9717  169.1240 C.3     1  UNL1        0.0868
     14 C         142.8388  142.3486  168.8583 C.3     1  UNL1        0.0245
     15 C         142.8707  140.1533  170.2474 C.3     1  UNL1        0.0245
     16 N         144.6584  142.5467  163.7805 N.pl3   1  UNL1       -0.2825
     17 H         145.5112  142.9872  163.9995 H       1  UNL1        0.1551
     18 C         143.7580  143.1337  162.7343 C.ar    1  UNL1        0.0505
     19 C         143.8820  142.6940  161.3055 C.ar    1  UNL1        0.0148
     20 C         142.9816  143.2811  160.2593 C.ar    1  UNL1        0.0058
     21 C         141.9572  144.3079  160.6418 C.ar    1  UNL1        0.0534
     22 C         141.8332  144.7476  162.0705 C.ar    1  UNL1        0.0058
     23 C         142.7336  144.1605  163.1168 C.ar    1  UNL1        0.0148
     24 C         141.0568  144.8950  159.5955 C.2     1  UNL1        0.2458
     25 O         139.7536  145.5219  159.9936 O.2     1  UNL1       -0.2701
     26 N         141.4597  144.8550  158.1512 N.am    1  UNL1       -0.3025
     27 H         142.3150  144.4435  157.8899 H       1  UNL1        0.1497
     28 C         140.5593  145.4421  157.1050 C.3     1  UNL1        0.0720
     29 C         140.1581  146.5968  156.2358 C.3     1  UNL1        0.0213
     30 C         139.4009  145.3041  156.1620 C.3     1  UNL1        0.0213
@<TRIPOS>BOND
     1     7     8    1
     2     8     9   ar
     3     9    10   ar
     4    10    11   ar
     5    11     1    1
     6     1     2   ar
     7     2     3   ar
     8     3     4   ar
     9     4     5   ar
    10     5    16    1
    11    16    18    1
    12    18    19   ar
    13    19    20   ar
    14    20    21   ar
    15    21    24    1
    16    24    25    2
    17    24    26   am
    18    26    28    1
    19    28    29    1
    20    29    30    1
    21    21    22   ar
    22    22    23   ar
    23     5     6   ar
    24    11    12   ar
    25    12    13    1
    26    13    14    1
    27    13    15    1
    28    12     8   ar
    29     6     1   ar
    30    23    18   ar
    31    30    28    1
    32    16    17    1
    33    26    27    1
@<TRIPOS>MOLECULE
*****
 30 33 0 0 0
SMALL
GASTEIGER

@<TRIPOS>ATOM
      1 C         140.7300  141.5170  159.0649 C.ar    1  UNL1        0.1030
      2 C         141.7775  140.6953  158.3740 C.ar    1  UNL1        0.0414
      3 C         141.7544  139.1999  158.4894 C.ar    1  UNL1        0.1034
      4 N         140.6838  138.5263  159.2957 N.ar    1  UNL1       -0.2120
      5 C         139.6363  139.3481  159.9866 C.ar    1  UNL1        0.2207
      6 N         139.6594  140.8434  159.8712 N.ar    1  UNL1       -0.2120
      7 C         140.0099  146.4261  157.2584 C.3     1  UNL1        0.0718
      8 C         140.4221  145.2689  158.1192 C.ar    1  UNL1        0.1208
      9 N         141.1551  145.3583  159.4249 N.ar    1  UNL1       -0.2293
     10 C         141.3596  143.9638  159.9380 C.ar    1  UNL1        0.1188
     11 C         140.7531  143.0124  158.9495 C.ar    1  UNL1        0.0981
     12 N         140.1737  143.8191  157.8254 N.ar    1  UNL1       -0.3155
     13 C         139.4695  143.2720  156.6193 C.3     1  UNL1        0.0868
     14 C         138.0053  142.9532  156.6859 C.3     1  UNL1        0.0245
     15 C         140.2296  143.0437  155.3464 C.3     1  UNL1        0.0245
     16 N         138.5657  138.6745  160.7929 N.pl3   1  UNL1       -0.2825
     17 H         137.8686  138.1459  160.3414 H       1  UNL1        0.1551
     18 C         138.5572  138.8064  162.2870 C.ar    1  UNL1        0.0505
     19 C         138.1161  140.0908  162.9242 C.ar    1  UNL1        0.0148
     20 C         138.1076  140.2226  164.4183 C.ar    1  UNL1        0.0058
     21 C         138.5402  139.0701  165.2754 C.ar    1  UNL1        0.0534
     22 C         138.9813  137.7858  164.6383 C.ar    1  UNL1        0.0058
     23 C         138.9898  137.6539  163.1441 C.ar    1  UNL1        0.0148
     24 C         138.5317  139.2020  166.7696 C.2     1  UNL1        0.2458
     25 O         137.4881  138.4912  167.5793 O.2     1  UNL1       -0.2701
     26 N         139.5668  140.0447  167.4540 N.am    1  UNL1       -0.3025
     27 H         140.2517  140.5112  166.9226 H       1  UNL1        0.1497
     28 C         139.5582  140.1765  168.9482 C.3     1  UNL1        0.0720
     29 C         138.8187  140.4524  170.2237 C.3     1  UNL1        0.0213
     30 C         140.2830  140.1291  170.2606 C.3     1  UNL1        0.0213
@<TRIPOS>BOND
     1     7     8    1
     2     8     9   ar
     3     9    10   ar
     4    10    11   ar
     5    11     1    1
     6     1     2   ar
     7     2     3   ar
     8     3     4   ar
     9     4     5   ar
    10     5    16    1
    11    16    18    1
    12    18    19   ar
    13    19    20   ar
    14    20    21   ar
    15    21    24    1
    16    24    25    2
    17    24    26   am
    18    26    28    1
    19    28    29    1
    20    29    30    1
    21    21    22   ar
    22    22    23   ar
    23     5     6   ar
    24    11    12   ar
    25    12    13    1
    26    13    14    1
    27    13    15    1
    28    12     8   ar
    29     6     1   ar
    30    23    18   ar
    31    30    28    1
    32    16    17    1
    33    26    27    1
@<TRIPOS>MOLECULE
*****
 30 33 0 0 0
SMALL
GASTEIGER

@<TRIPOS>ATOM
      1 C         140.6533  141.9228  163.4103 C.ar    1  UNL1        0.1030
      2 C         140.0787  143.0613  162.6206 C.ar    1  UNL1        0.0414
      3 C         139.4846  144.2418  163.3302 C.ar    1  UNL1        0.1034
      4 N         139.4652  144.2837  164.8295 N.ar    1  UNL1       -0.2120
      5 C         140.0397  143.1452  165.6191 C.ar    1  UNL1        0.2207
      6 N         140.6338  141.9648  164.9095 N.ar    1  UNL1       -0.2120
      7 C         143.8655  137.9376  162.1138 C.3     1  UNL1        0.0718
      8 C         142.7238  138.9105  162.1047 C.ar    1  UNL1        0.1208
      9 N         141.5991  138.9408  161.1126 N.ar    1  UNL1       -0.2293
     10 C         140.6866  140.0729  161.4810 C.ar    1  UNL1        0.1188
     11 C         141.2473  140.7423  162.7007 C.ar    1  UNL1        0.0981
     12 N         142.5064  140.0238  163.0862 N.ar    1  UNL1       -0.3155
     13 C         143.3924  140.3597  164.2489 C.3     1  UNL1        0.0868
     14 C         144.3815  141.4819  164.1387 C.3     1  UNL1        0.0245
     15 C         143.2894  139.5732  165.5221 C.3     1  UNL1        0.0245
     16 N         140.0203  143.1872  167.1184 N.pl3   1  UNL1       -0.2825
     17 H         139.4858  143.8698  167.5849 H       1  UNL1        0.1551
     18 C         140.8152  142.1891  167.9070 C.ar    1  UNL1        0.0505
     19 C         140.1952  140.8824  168.3049 C.ar    1  UNL1        0.0148
     20 C         140.9901  139.8844  169.0935 C.ar    1  UNL1        0.0058
     21 C         142.4050  140.1930  169.4843 C.ar    1  UNL1        0.0534
     22 C         143.0250  141.4996  169.0866 C.ar    1  UNL1        0.0058
     23 C         142.2301  142.4977  168.2979 C.ar    1  UNL1        0.0148
     24 C         143.1999  139.1948  170.2730 C.2     1  UNL1        0.2458
     25 O         144.0254  139.6477  171.4406 O.2     1  UNL1       -0.2701
     26 N         143.1693  137.7438  169.8940 N.am    1  UNL1       -0.3025
     27 H         142.6275  137.4466  169.1276 H       1  UNL1        0.1497
     28 C         143.9642  136.7458  170.6826 C.3     1  UNL1        0.0720
     29 C         144.0427  135.7141  171.7686 C.3     1  UNL1        0.0213
     30 C         145.2626  136.0489  170.9626 C.3     1  UNL1        0.0213
@<TRIPOS>BOND
     1     7     8    1
     2     8     9   ar
     3     9    10   ar
     4    10    11   ar
     5    11     1    1
     6     1     2   ar
     7     2     3   ar
     8     3     4   ar
     9     4     5   ar
    10     5    16    1
    11    16    18    1
    12    18    19   ar
    13    19    20   ar
    14    20    21   ar
    15    21    24    1
    16    24    25    2
    17    24    26   am
    18    26    28    1
    19    28    29    1
    20    29    30    1
    21    21    22   ar
    22    22    23   ar
    23     5     6   ar
    24    11    12   ar
    25    12    13    1
    26    13    14    1
    27    13    15    1
    28    12     8   ar
    29     6     1   ar
    30    23    18   ar
    31    30    28    1
    32    16    17    1
    33    26    27    1
