@<TRIPOS>MOLECULE
*****
 37 41 0 0 0
SMALL
GASTEIGER

@<TRIPOS>ATOM
      1 C         140.3720  142.2768  167.7721 C.3     1  UNL1        0.0832
      2 C         140.3499  143.1217  169.0113 C.3     1  UNL1        0.0372
      3 C         140.0006  142.5050  170.3333 C.3     1  UNL1        0.0703
      4 N         139.6734  141.0435  170.4161 N.3     1  UNL1       -0.2970
      5 C         139.6955  140.1986  169.1769 C.3     1  UNL1        0.0794
      6 C         140.0448  140.8153  167.8549 C.3     1  UNL1        0.1101
      7 H         138.7323  140.9739  170.8032 H       1  UNL1        0.1233
      8 O         143.2111  142.2408  166.8035 O.2     1  UNL1       -0.2684
      9 C         142.1408  142.8754  165.9657 C.2     1  UNL1        0.2669
     10 N         140.7212  142.8934  166.4500 N.am    1  UNL1       -0.3006
     11 H         140.0188  143.3099  165.9002 H       1  UNL1        0.1497
     12 C         142.4901  143.4920  164.6437 C.ar    1  UNL1        0.1761
     13 C         141.6650  143.4226  163.3929 C.ar    1  UNL1        0.0673
     14 C         142.3908  144.1740  162.3165 C.ar    1  UNL1        0.1792
     15 O         143.6645  144.7078  162.9021 O.2     1  UNL1       -0.3532
     16 N         143.7258  144.2864  164.3404 N.ar    1  UNL1       -0.0723
     17 C         141.9248  144.3590  160.9028 C.ar    1  UNL1        0.0648
     18 C         142.5676  143.5808  159.7933 C.ar    1  UNL1        0.0077
     19 C         142.1016  143.7658  158.3796 C.ar    1  UNL1        0.0299
     20 C         140.9928  144.7292  158.0754 C.ar    1  UNL1        0.1424
     21 F         140.5268  144.9142  156.6617 F       1  UNL1       -0.2041
     22 C         140.3500  145.5074  159.1849 C.ar    1  UNL1        0.0593
     23 C         140.8160  145.3223  160.5986 C.ar    1  UNL1        0.1453
     24 F         140.1732  146.1006  161.7082 F       1  UNL1       -0.2040
     25 C         140.0669  139.9704  166.6156 C.2     1  UNL1        0.2252
     26 O         141.3594  139.3838  166.1308 O.2     1  UNL1       -0.2750
     27 N         138.7963  139.7121  165.8613 N.am    1  UNL1       -0.3010
     28 H         137.9480  140.0971  166.1795 H       1  UNL1        0.1497
     29 C         138.8184  138.8673  164.6220 C.3     1  UNL1        0.1089
     30 C         138.8489  137.6496  163.7466 C.3     1  UNL1        0.0274
     31 C         138.8503  137.5005  165.2392 C.3     1  UNL1        0.0274
     32 C         138.7941  139.9406  163.5745 C.ar    1  UNL1        0.1549
     33 N         139.8147  139.9390  162.4753 N.ar    1  UNL1       -0.2276
     34 C         139.7904  141.0124  161.4277 C.ar    1  UNL1        0.1019
     35 C         138.7456  142.0873  161.4795 C.ar    1  UNL1        0.0413
     36 C         137.7250  142.0889  162.5787 C.ar    1  UNL1        0.1019
     37 N         137.7492  141.0156  163.6263 N.ar    1  UNL1       -0.2276
@<TRIPOS>BOND
     1     8     9    2
     2     9    10   am
     3     1    10    1
     4     1     2    1
     5     2     3    1
     6     3     4    1
     7     4     5    1
     8     5     6    1
     9     6    25    1
    10    25    26    2
    11    25    27   am
    12    27    29    1
    13    29    32    1
    14    32    33   ar
    15    33    34   ar
    16    34    35   ar
    17    35    36   ar
    18    36    37   ar
    19    29    30    1
    20    30    31    1
    21     9    12    1
    22    12    13   ar
    23    13    14   ar
    24    14    17    1
    25    17    18   ar
    26    18    19   ar
    27    19    20   ar
    28    20    21    1
    29    20    22   ar
    30    22    23   ar
    31    23    24    1
    32    14    15   ar
    33    15    16   ar
    34     6     1    1
    35    31    29    1
    36    16    12   ar
    37    37    32   ar
    38    23    17   ar
    39    10    11    1
    40     4     7    1
    41    27    28    1
@<TRIPOS>MOLECULE
*****
 37 41 0 0 0
SMALL
GASTEIGER

@<TRIPOS>ATOM
      1 C         141.4812  144.1772  159.5564 C.3     1  UNL1        0.0832
      2 C         141.4159  145.5106  158.8724 C.3     1  UNL1        0.0372
      3 C         142.0955  145.7092  157.5501 C.3     1  UNL1        0.0703
      4 N         142.8404  144.5745  156.9117 N.3     1  UNL1       -0.2970
      5 C         142.9057  143.2411  157.5956 C.3     1  UNL1        0.0794
      6 C         142.2260  143.0425  158.9179 C.3     1  UNL1        0.1101
      7 H         143.8027  144.8881  156.7854 H       1  UNL1        0.1233
      8 O         142.9866  144.6655  162.1049 O.2     1  UNL1       -0.2684
      9 C         141.5543  144.2226  162.1530 C.2     1  UNL1        0.2669
     10 N         140.8015  143.9785  160.8788 N.am    1  UNL1       -0.3006
     11 H         139.8614  143.6878  160.9103 H       1  UNL1        0.1497
     12 C         140.8747  144.0239  163.4754 C.ar    1  UNL1        0.1761
     13 C         141.1773  142.9410  164.4683 C.ar    1  UNL1        0.0673
     14 C         140.2629  143.1210  165.6436 C.ar    1  UNL1        0.1792
     15 O         139.3951  144.3152  165.3771 O.2     1  UNL1       -0.3532
     16 N         139.7732  144.8732  164.0370 N.ar    1  UNL1       -0.0723
     17 C         140.2231  142.2584  166.8701 C.ar    1  UNL1        0.0648
     18 C         140.7401  142.7864  168.1755 C.ar    1  UNL1        0.0077
     19 C         140.7004  141.9238  169.4019 C.ar    1  UNL1        0.0299
     20 C         140.1436  140.5331  169.3230 C.ar    1  UNL1        0.1424
     21 F         140.1039  139.6705  170.5495 F       1  UNL1       -0.2041
     22 C         139.6267  140.0052  168.0177 C.ar    1  UNL1        0.0593
     23 C         139.6664  140.8678  166.7913 C.ar    1  UNL1        0.1453
     24 F         139.1494  140.3398  165.4859 F       1  UNL1       -0.2040
     25 C         142.2913  141.7090  159.6019 C.2     1  UNL1        0.2252
     26 O         141.0696  141.1460  160.2656 O.2     1  UNL1       -0.2750
     27 N         143.5782  140.9387  159.6222 N.am    1  UNL1       -0.3010
     28 H         144.3801  141.3083  159.1866 H       1  UNL1        0.1497
     29 C         143.6435  139.6054  160.3062 C.3     1  UNL1        0.1089
     30 C         143.5011  138.1297  160.5341 C.3     1  UNL1        0.0274
     31 C         143.0680  138.7325  159.2306 C.3     1  UNL1        0.0274
     32 C         144.2417  140.0151  161.6192 C.ar    1  UNL1        0.1549
     33 N         144.9611  141.3259  161.7392 N.ar    1  UNL1       -0.2276
     34 C         145.5593  141.7357  163.0524 C.ar    1  UNL1        0.1019
     35 C         145.4381  140.8348  164.2454 C.ar    1  UNL1        0.0413
     36 C         144.7188  139.5240  164.1254 C.ar    1  UNL1        0.1019
     37 N         144.1205  139.1141  162.8124 N.ar    1  UNL1       -0.2276
@<TRIPOS>BOND
     1     8     9    2
     2     9    10   am
     3     1    10    1
     4     1     2    1
     5     2     3    1
     6     3     4    1
     7     4     5    1
     8     5     6    1
     9     6    25    1
    10    25    26    2
    11    25    27   am
    12    27    29    1
    13    29    32    1
    14    32    33   ar
    15    33    34   ar
    16    34    35   ar
    17    35    36   ar
    18    36    37   ar
    19    29    30    1
    20    30    31    1
    21     9    12    1
    22    12    13   ar
    23    13    14   ar
    24    14    17    1
    25    17    18   ar
    26    18    19   ar
    27    19    20   ar
    28    20    21    1
    29    20    22   ar
    30    22    23   ar
    31    23    24    1
    32    14    15   ar
    33    15    16   ar
    34     6     1    1
    35    31    29    1
    36    16    12   ar
    37    37    32   ar
    38    23    17   ar
    39    10    11    1
    40     4     7    1
    41    27    28    1
@<TRIPOS>MOLECULE
*****
 37 41 0 0 0
SMALL
GASTEIGER

@<TRIPOS>ATOM
      1 C         142.4371  139.0238  161.3622 C.3     1  UNL1        0.0832
      2 C         142.7206  137.6659  160.7916 C.3     1  UNL1        0.0372
      3 C         142.9979  137.5114  159.3256 C.3     1  UNL1        0.0703
      4 N         142.9917  138.7148  158.4302 N.3     1  UNL1       -0.2970
      5 C         142.7083  140.0727  159.0008 C.3     1  UNL1        0.0794
      6 C         142.4310  140.2272  160.4667 C.3     1  UNL1        0.1101
      7 H         142.2874  138.5441  157.7124 H       1  UNL1        0.1233
      8 O         144.7062  139.0379  163.3246 O.2     1  UNL1       -0.2684
      9 C         143.2944  139.1855  163.8094 C.2     1  UNL1        0.2669
     10 N         142.1598  139.1784  162.8282 N.am    1  UNL1       -0.3006
     11 H         141.2332  139.2753  163.1464 H       1  UNL1        0.1497
     12 C         143.0171  139.3400  165.2754 C.ar    1  UNL1        0.1761
     13 C         142.1203  140.3678  165.8996 C.ar    1  UNL1        0.0673
     14 C         142.1369  140.1570  167.3846 C.ar    1  UNL1        0.1792
     15 O         143.0440  138.9989  167.6782 O.2     1  UNL1       -0.3532
     16 N         143.5880  138.4940  166.3747 N.ar    1  UNL1       -0.0723
     17 C         141.3795  140.9627  168.3981 C.ar    1  UNL1        0.0648
     18 C         140.0745  140.4553  168.9362 C.ar    1  UNL1        0.0077
     19 C         139.3171  141.2610  169.9496 C.ar    1  UNL1        0.0299
     20 C         139.8646  142.5741  170.4249 C.ar    1  UNL1        0.1424
     21 F         139.1072  143.3798  171.4384 F       1  UNL1       -0.2041
     22 C         141.1695  143.0815  169.8868 C.ar    1  UNL1        0.0593
     23 C         141.9270  142.2757  168.8734 C.ar    1  UNL1        0.1453
     24 F         143.2320  142.7831  168.3352 F       1  UNL1       -0.2040
     25 C         142.1475  141.5852  161.0374 C.2     1  UNL1        0.2252
     26 O         143.0469  142.1581  162.0923 O.2     1  UNL1       -0.2750
     27 N         140.9647  142.3703  160.5530 N.am    1  UNL1       -0.3010
     28 H         140.3744  141.9943  159.8606 H       1  UNL1        0.1497
     29 C         140.6812  143.7282  161.1236 C.3     1  UNL1        0.1089
     30 C         140.7188  145.2167  161.3053 C.3     1  UNL1        0.0274
     31 C         141.5074  144.5757  160.2020 C.3     1  UNL1        0.0274
     32 C         139.7566  143.3524  162.2433 C.ar    1  UNL1        0.1549
     33 N         138.4358  142.7087  161.9414 N.ar    1  UNL1       -0.2276
     34 C         137.5111  142.3329  163.0611 C.ar    1  UNL1        0.1019
     35 C         137.9072  142.6008  164.4828 C.ar    1  UNL1        0.0413
     36 C         139.2280  143.2446  164.7848 C.ar    1  UNL1        0.1019
     37 N         140.1527  143.6204  163.6651 N.ar    1  UNL1       -0.2276
@<TRIPOS>BOND
     1     8     9    2
     2     9    10   am
     3     1    10    1
     4     1     2    1
     5     2     3    1
     6     3     4    1
     7     4     5    1
     8     5     6    1
     9     6    25    1
    10    25    26    2
    11    25    27   am
    12    27    29    1
    13    29    32    1
    14    32    33   ar
    15    33    34   ar
    16    34    35   ar
    17    35    36   ar
    18    36    37   ar
    19    29    30    1
    20    30    31    1
    21     9    12    1
    22    12    13   ar
    23    13    14   ar
    24    14    17    1
    25    17    18   ar
    26    18    19   ar
    27    19    20   ar
    28    20    21    1
    29    20    22   ar
    30    22    23   ar
    31    23    24    1
    32    14    15   ar
    33    15    16   ar
    34     6     1    1
    35    31    29    1
    36    16    12   ar
    37    37    32   ar
    38    23    17   ar
    39    10    11    1
    40     4     7    1
    41    27    28    1
@<TRIPOS>MOLECULE
*****
 37 41 0 0 0
SMALL
GASTEIGER

@<TRIPOS>ATOM
      1 C         142.3665  143.9061  157.3963 C.3     1  UNL1        0.0832
      2 C         142.9031  143.9450  155.9962 C.3     1  UNL1        0.0372
      3 C         142.3248  144.9034  154.9977 C.3     1  UNL1        0.0703
      4 N         141.2098  145.8228  155.3994 N.3     1  UNL1       -0.2970
      5 C         140.6731  145.7839  156.7996 C.3     1  UNL1        0.0794
      6 C         141.2515  144.8255  157.7980 C.3     1  UNL1        0.1101
      7 H         140.4258  145.6240  154.7780 H       1  UNL1        0.1233
      8 O         141.3406  141.0907  157.5415 O.2     1  UNL1       -0.2684
      9 C         142.4319  141.5399  158.4675 C.2     1  UNL1        0.2669
     10 N         142.9448  142.9476  158.3949 N.am    1  UNL1       -0.3006
     11 H         143.6611  143.2425  159.0026 H       1  UNL1        0.1497
     12 C         143.0102  140.5815  159.4659 C.ar    1  UNL1        0.1761
     13 C         142.7519  140.5851  160.9435 C.ar    1  UNL1        0.0673
     14 C         143.5304  139.4570  161.5530 C.ar    1  UNL1        0.1792
     15 O         144.2698  138.7563  160.4519 O.2     1  UNL1       -0.3532
     16 N         143.9483  139.4512  159.1621 N.ar    1  UNL1       -0.0723
     17 C         143.5636  139.0935  163.0078 C.ar    1  UNL1        0.0648
     18 C         144.7713  139.4206  163.8352 C.ar    1  UNL1        0.0077
     19 C         144.8045  139.0571  165.2901 C.ar    1  UNL1        0.0299
     20 C         143.6300  138.3666  165.9176 C.ar    1  UNL1        0.1424
     21 F         143.6633  138.0031  167.3725 F       1  UNL1       -0.2041
     22 C         142.4224  138.0396  165.0903 C.ar    1  UNL1        0.0593
     23 C         142.3892  138.4031  163.6354 C.ar    1  UNL1        0.1453
     24 F         141.1815  138.0761  162.8080 F       1  UNL1       -0.2040
     25 C         140.7149  144.7866  159.1983 C.2     1  UNL1        0.2252
     26 O         139.4210  144.0845  159.4863 O.2     1  UNL1       -0.2750
     27 N         141.4721  145.4498  160.3104 N.am    1  UNL1       -0.3010
     28 H         142.3213  145.9106  160.1213 H       1  UNL1        0.1497
     29 C         140.9355  145.4108  161.7105 C.3     1  UNL1        0.1089
     30 C         140.0243  145.6490  162.8780 C.3     1  UNL1        0.0274
     31 C         139.6703  146.1954  161.5265 C.3     1  UNL1        0.0274
     32 C         142.0143  144.6128  162.3808 C.ar    1  UNL1        0.1549
     33 N         141.8418  144.1631  163.8014 N.ar    1  UNL1       -0.2276
     34 C         142.9207  143.3651  164.4718 C.ar    1  UNL1        0.1019
     35 C         144.1719  143.0168  163.7215 C.ar    1  UNL1        0.0413
     36 C         144.3444  143.4665  162.3009 C.ar    1  UNL1        0.1019
     37 N         143.2657  144.2645  161.6306 N.ar    1  UNL1       -0.2276
@<TRIPOS>BOND
     1     8     9    2
     2     9    10   am
     3     1    10    1
     4     1     2    1
     5     2     3    1
     6     3     4    1
     7     4     5    1
     8     5     6    1
     9     6    25    1
    10    25    26    2
    11    25    27   am
    12    27    29    1
    13    29    32    1
    14    32    33   ar
    15    33    34   ar
    16    34    35   ar
    17    35    36   ar
    18    36    37   ar
    19    29    30    1
    20    30    31    1
    21     9    12    1
    22    12    13   ar
    23    13    14   ar
    24    14    17    1
    25    17    18   ar
    26    18    19   ar
    27    19    20   ar
    28    20    21    1
    29    20    22   ar
    30    22    23   ar
    31    23    24    1
    32    14    15   ar
    33    15    16   ar
    34     6     1    1
    35    31    29    1
    36    16    12   ar
    37    37    32   ar
    38    23    17   ar
    39    10    11    1
    40     4     7    1
    41    27    28    1
@<TRIPOS>MOLECULE
*****
 37 41 0 0 0
SMALL
GASTEIGER

@<TRIPOS>ATOM
      1 C         141.0965  143.7218  160.7156 C.3     1  UNL1        0.0832
      2 C         140.8614  145.1464  160.3093 C.3     1  UNL1        0.0372
      3 C         140.6624  145.4907  158.8630 C.3     1  UNL1        0.0703
      4 N         140.6986  144.4104  157.8230 N.3     1  UNL1       -0.2970
      5 C         140.9337  142.9858  158.2293 C.3     1  UNL1        0.0794
      6 C         141.1326  142.6415  159.6756 C.3     1  UNL1        0.1101
      7 H         141.4413  144.6564  157.1686 H       1  UNL1        0.1233
      8 O         143.8111  143.9956  161.9630 O.2     1  UNL1       -0.2684
      9 C         142.6527  143.5143  162.7857 C.2     1  UNL1        0.2669
     10 N         141.2954  143.3773  162.1619 N.am    1  UNL1       -0.3006
     11 H         140.5352  143.0614  162.7018 H       1  UNL1        0.1497
     12 C         142.8517  143.1699  164.2319 C.ar    1  UNL1        0.1761
     13 C         141.8899  142.4121  165.0983 C.ar    1  UNL1        0.0673
     14 C         142.4912  142.2967  166.4676 C.ar    1  UNL1        0.1792
     15 O         143.8248  142.9832  166.4475 O.2     1  UNL1       -0.3532
     16 N         144.0475  143.5229  165.0658 N.ar    1  UNL1       -0.0723
     17 C         141.8684  141.6146  167.6495 C.ar    1  UNL1        0.0648
     18 C         142.4368  140.3217  168.1547 C.ar    1  UNL1        0.0077
     19 C         141.8140  139.6396  169.3366 C.ar    1  UNL1        0.0299
     20 C         140.6228  140.2504  170.0132 C.ar    1  UNL1        0.1424
     21 F         140.0000  139.5683  171.1950 F       1  UNL1       -0.2041
     22 C         140.0544  141.5432  169.5079 C.ar    1  UNL1        0.0593
     23 C         140.6772  142.2253  168.3261 C.ar    1  UNL1        0.1453
     24 F         140.1087  143.5182  167.8208 F       1  UNL1       -0.2040
     25 C         141.3678  141.2168  160.0819 C.2     1  UNL1        0.2252
     26 O         140.2750  140.4379  160.7521 O.2     1  UNL1       -0.2750
     27 N         142.6957  140.5710  159.8180 N.am    1  UNL1       -0.3010
     28 H         143.4129  141.0823  159.3782 H       1  UNL1        0.1497
     29 C         142.9309  139.1464  160.2243 C.3     1  UNL1        0.1089
     30 C         142.9944  137.6499  160.1441 C.3     1  UNL1        0.0274
     31 C         142.5183  138.4447  158.9644 C.3     1  UNL1        0.0274
     32 C         143.4251  139.3533  161.6253 C.ar    1  UNL1        0.1549
     33 N         142.8081  138.5888  162.7589 N.ar    1  UNL1       -0.2276
     34 C         143.3023  138.7956  164.1600 C.ar    1  UNL1        0.1019
     35 C         144.4135  139.7670  164.4275 C.ar    1  UNL1        0.0413
     36 C         145.0305  140.5315  163.2940 C.ar    1  UNL1        0.1019
     37 N         144.5363  140.3247  161.8929 N.ar    1  UNL1       -0.2276
@<TRIPOS>BOND
     1     8     9    2
     2     9    10   am
     3     1    10    1
     4     1     2    1
     5     2     3    1
     6     3     4    1
     7     4     5    1
     8     5     6    1
     9     6    25    1
    10    25    26    2
    11    25    27   am
    12    27    29    1
    13    29    32    1
    14    32    33   ar
    15    33    34   ar
    16    34    35   ar
    17    35    36   ar
    18    36    37   ar
    19    29    30    1
    20    30    31    1
    21     9    12    1
    22    12    13   ar
    23    13    14   ar
    24    14    17    1
    25    17    18   ar
    26    18    19   ar
    27    19    20   ar
    28    20    21    1
    29    20    22   ar
    30    22    23   ar
    31    23    24    1
    32    14    15   ar
    33    15    16   ar
    34     6     1    1
    35    31    29    1
    36    16    12   ar
    37    37    32   ar
    38    23    17   ar
    39    10    11    1
    40     4     7    1
    41    27    28    1
@<TRIPOS>MOLECULE
*****
 37 41 0 0 0
SMALL
GASTEIGER

@<TRIPOS>ATOM
      1 C         140.3701  142.2888  167.5579 C.3     1  UNL1        0.0832
      2 C         140.3882  143.1106  168.8126 C.3     1  UNL1        0.0372
      3 C         140.0110  142.4865  170.1233 C.3     1  UNL1        0.0703
      4 N         139.6157  141.0406  170.1794 N.3     1  UNL1       -0.2970
      5 C         139.5977  140.2188  168.9247 C.3     1  UNL1        0.0794
      6 C         139.9749  140.8429  167.6139 C.3     1  UNL1        0.1101
      7 H         138.6725  141.0079  170.5663 H       1  UNL1        0.1233
      8 O         143.1164  141.8617  166.4283 O.2     1  UNL1       -0.2684
      9 C         142.1205  142.6994  165.6822 C.2     1  UNL1        0.2669
     10 N         140.7474  142.9130  166.2470 N.am    1  UNL1       -0.3006
     11 H         140.0937  143.4627  165.7574 H       1  UNL1        0.1497
     12 C         142.4977  143.3235  164.3715 C.ar    1  UNL1        0.1761
     13 C         141.6547  143.3469  163.1310 C.ar    1  UNL1        0.0673
     14 C         142.4202  144.0716  162.0639 C.ar    1  UNL1        0.1792
     15 O         143.7364  144.4960  162.6449 O.2     1  UNL1       -0.3532
     16 N         143.7843  144.0337  164.0710 N.ar    1  UNL1       -0.0723
     17 C         141.9518  144.3270  160.6620 C.ar    1  UNL1        0.0648
     18 C         142.5885  143.6006  159.5144 C.ar    1  UNL1        0.0077
     19 C         142.1201  143.8560  158.1125 C.ar    1  UNL1        0.0299
     20 C         141.0149  144.8379  157.8582 C.ar    1  UNL1        0.1424
     21 F         140.5465  145.0933  156.4563 F       1  UNL1       -0.2041
     22 C         140.3783  145.5642  159.0057 C.ar    1  UNL1        0.0593
     23 C         140.8467  145.3088  160.4076 C.ar    1  UNL1        0.1453
     24 F         140.2100  146.0352  161.5552 F       1  UNL1       -0.2040
     25 C         139.9569  140.0212  166.3591 C.2     1  UNL1        0.2252
     26 O         138.7290  139.9939  165.4980 O.2     1  UNL1       -0.2750
     27 N         141.1667  139.2266  165.9655 N.am    1  UNL1       -0.3010
     28 H         141.9726  139.2445  166.5307 H       1  UNL1        0.1497
     29 C         141.1487  138.4049  164.7108 C.3     1  UNL1        0.1089
     30 C         140.7522  137.3465  163.7246 C.3     1  UNL1        0.0274
     31 C         140.0525  137.4382  165.0483 C.3     1  UNL1        0.0274
     32 C         142.2387  139.0862  163.9376 C.ar    1  UNL1        0.1549
     33 N         141.9524  139.6533  162.5788 N.ar    1  UNL1       -0.2276
     34 C         143.0423  140.3346  161.8055 C.ar    1  UNL1        0.1019
     35 C         144.4185  140.4487  162.3911 C.ar    1  UNL1        0.0413
     36 C         144.7048  139.8816  163.7499 C.ar    1  UNL1        0.1019
     37 N         143.6150  139.2003  164.5232 N.ar    1  UNL1       -0.2276
@<TRIPOS>BOND
     1     8     9    2
     2     9    10   am
     3     1    10    1
     4     1     2    1
     5     2     3    1
     6     3     4    1
     7     4     5    1
     8     5     6    1
     9     6    25    1
    10    25    26    2
    11    25    27   am
    12    27    29    1
    13    29    32    1
    14    32    33   ar
    15    33    34   ar
    16    34    35   ar
    17    35    36   ar
    18    36    37   ar
    19    29    30    1
    20    30    31    1
    21     9    12    1
    22    12    13   ar
    23    13    14   ar
    24    14    17    1
    25    17    18   ar
    26    18    19   ar
    27    19    20   ar
    28    20    21    1
    29    20    22   ar
    30    22    23   ar
    31    23    24    1
    32    14    15   ar
    33    15    16   ar
    34     6     1    1
    35    31    29    1
    36    16    12   ar
    37    37    32   ar
    38    23    17   ar
    39    10    11    1
    40     4     7    1
    41    27    28    1
@<TRIPOS>MOLECULE
*****
 37 41 0 0 0
SMALL
GASTEIGER

@<TRIPOS>ATOM
      1 C         141.7557  139.5080  160.2076 C.3     1  UNL1        0.0832
      2 C         141.1386  138.5282  159.2541 C.3     1  UNL1        0.0372
      3 C         141.8669  138.1404  158.0014 C.3     1  UNL1        0.0703
      4 N         143.2122  138.7324  157.7022 N.3     1  UNL1       -0.2970
      5 C         143.8293  139.7123  158.6556 C.3     1  UNL1        0.0794
      6 C         143.1011  140.1000  159.9083 C.3     1  UNL1        0.1101
      7 H         143.1315  139.2074  156.8031 H       1  UNL1        0.1233
      8 O         141.1807  137.4447  162.3081 O.2     1  UNL1       -0.2684
      9 C         140.7400  138.8642  162.5106 C.2     1  UNL1        0.2669
     10 N         141.0275  139.8958  161.4603 N.am    1  UNL1       -0.3006
     11 H         140.7383  140.8274  161.5932 H       1  UNL1        0.1497
     12 C         140.0118  139.2519  163.7633 C.ar    1  UNL1        0.1761
     13 C         140.6261  139.8673  164.9856 C.ar    1  UNL1        0.0673
     14 C         139.5354  140.0881  165.9914 C.ar    1  UNL1        0.1792
     15 O         138.2471  139.6092  165.3907 O.2     1  UNL1       -0.3532
     16 N         138.5415  139.0924  164.0137 N.ar    1  UNL1       -0.0723
     17 C         139.7036  140.6832  167.3580 C.ar    1  UNL1        0.0648
     18 C         139.1821  139.9563  168.5620 C.ar    1  UNL1        0.0077
     19 C         139.3503  140.5514  169.9286 C.ar    1  UNL1        0.0299
     20 C         140.0398  141.8736  170.0911 C.ar    1  UNL1        0.1424
     21 F         140.2080  142.4688  171.4576 F       1  UNL1       -0.2041
     22 C         140.5612  142.6005  168.8871 C.ar    1  UNL1        0.0593
     23 C         140.3931  142.0053  167.5206 C.ar    1  UNL1        0.1453
     24 F         140.9145  142.7323  166.3166 F       1  UNL1       -0.2040
     25 C         143.7182  141.0799  160.8618 C.2     1  UNL1        0.2252
     26 O         144.4615  142.2718  160.3357 O.2     1  UNL1       -0.2750
     27 N         143.5919  140.8678  162.3413 N.am    1  UNL1       -0.3010
     28 H         143.1040  140.0855  162.6866 H       1  UNL1        0.1497
     29 C         144.2089  141.8476  163.2948 C.3     1  UNL1        0.1089
     30 C         145.2067  142.4727  164.2242 C.3     1  UNL1        0.0274
     31 C         145.5195  141.1664  163.5565 C.3     1  UNL1        0.0274
     32 C         143.1128  142.8691  163.3643 C.ar    1  UNL1        0.1549
     33 N         141.6986  142.4737  163.0580 N.ar    1  UNL1       -0.2276
     34 C         140.6023  143.4953  163.1275 C.ar    1  UNL1        0.1019
     35 C         140.9203  144.9122  163.5033 C.ar    1  UNL1        0.0413
     36 C         142.3345  145.3075  163.8096 C.ar    1  UNL1        0.1019
     37 N         143.4307  144.2861  163.7402 N.ar    1  UNL1       -0.2276
@<TRIPOS>BOND
     1     8     9    2
     2     9    10   am
     3     1    10    1
     4     1     2    1
     5     2     3    1
     6     3     4    1
     7     4     5    1
     8     5     6    1
     9     6    25    1
    10    25    26    2
    11    25    27   am
    12    27    29    1
    13    29    32    1
    14    32    33   ar
    15    33    34   ar
    16    34    35   ar
    17    35    36   ar
    18    36    37   ar
    19    29    30    1
    20    30    31    1
    21     9    12    1
    22    12    13   ar
    23    13    14   ar
    24    14    17    1
    25    17    18   ar
    26    18    19   ar
    27    19    20   ar
    28    20    21    1
    29    20    22   ar
    30    22    23   ar
    31    23    24    1
    32    14    15   ar
    33    15    16   ar
    34     6     1    1
    35    31    29    1
    36    16    12   ar
    37    37    32   ar
    38    23    17   ar
    39    10    11    1
    40     4     7    1
    41    27    28    1
@<TRIPOS>MOLECULE
*****
 37 41 0 0 0
SMALL
GASTEIGER

@<TRIPOS>ATOM
      1 C         143.4892  141.9995  160.6378 C.3     1  UNL1        0.0832
      2 C         144.6746  142.5950  159.9378 C.3     1  UNL1        0.0372
      3 C         144.6528  142.7775  158.4491 C.3     1  UNL1        0.0703
      4 N         143.4456  142.3644  157.6604 N.3     1  UNL1       -0.2970
      5 C         142.2602  141.7689  158.3604 C.3     1  UNL1        0.0794
      6 C         142.2819  141.5864  159.8491 C.3     1  UNL1        0.1101
      7 H         143.7614  141.6752  156.9780 H       1  UNL1        0.1233
      8 O         142.8872  144.3193  162.4422 O.2     1  UNL1       -0.2684
      9 C         143.2100  142.9769  163.0288 C.2     1  UNL1        0.2669
     10 N         143.5109  141.8170  162.1265 N.am    1  UNL1       -0.3006
     11 H         143.7227  140.9360  162.5114 H       1  UNL1        0.1497
     12 C         143.2317  142.7945  164.5174 C.ar    1  UNL1        0.1761
     13 C         142.2357  142.0161  165.3250 C.ar    1  UNL1        0.0673
     14 C         142.6416  142.0990  166.7666 C.ar    1  UNL1        0.1792
     15 O         143.8886  142.9286  166.8500 O.2     1  UNL1       -0.3532
     16 N         144.2533  143.3584  165.4600 N.ar    1  UNL1       -0.0723
     17 C         141.9263  141.4638  167.9219 C.ar    1  UNL1        0.0648
     18 C         142.4616  140.2034  168.5342 C.ar    1  UNL1        0.0077
     19 C         141.7463  139.5682  169.6895 C.ar    1  UNL1        0.0299
     20 C         140.4956  140.1935  170.2326 C.ar    1  UNL1        0.1424
     21 F         139.7803  139.5583  171.3880 F       1  UNL1       -0.2041
     22 C         139.9604  141.4538  169.6204 C.ar    1  UNL1        0.0593
     23 C         140.6757  142.0890  168.4651 C.ar    1  UNL1        0.1453
     24 F         140.1404  143.3494  167.8529 F       1  UNL1       -0.2040
     25 C         141.0965  140.9909  160.5492 C.2     1  UNL1        0.2252
     26 O         141.2928  139.9036  161.5637 O.2     1  UNL1       -0.2750
     27 N         139.7147  141.4827  160.2347 N.am    1  UNL1       -0.3010
     28 H         139.5859  142.1963  159.5689 H       1  UNL1        0.1497
     29 C         138.5293  140.8872  160.9348 C.3     1  UNL1        0.1089
     30 C         137.3901  139.9592  161.2365 C.3     1  UNL1        0.0274
     31 C         138.2510  139.7228  160.0310 C.3     1  UNL1        0.0274
     32 C         138.3959  141.8447  162.0816 C.ar    1  UNL1        0.1549
     33 N         137.9690  143.2607  161.8307 N.ar    1  UNL1       -0.2276
     34 C         137.8356  144.2183  162.9776 C.ar    1  UNL1        0.1019
     35 C         138.1291  143.7599  164.3753 C.ar    1  UNL1        0.0413
     36 C         138.5559  142.3440  164.6262 C.ar    1  UNL1        0.1019
     37 N         138.6893  141.3864  163.4794 N.ar    1  UNL1       -0.2276
@<TRIPOS>BOND
     1     8     9    2
     2     9    10   am
     3     1    10    1
     4     1     2    1
     5     2     3    1
     6     3     4    1
     7     4     5    1
     8     5     6    1
     9     6    25    1
    10    25    26    2
    11    25    27   am
    12    27    29    1
    13    29    32    1
    14    32    33   ar
    15    33    34   ar
    16    34    35   ar
    17    35    36   ar
    18    36    37   ar
    19    29    30    1
    20    30    31    1
    21     9    12    1
    22    12    13   ar
    23    13    14   ar
    24    14    17    1
    25    17    18   ar
    26    18    19   ar
    27    19    20   ar
    28    20    21    1
    29    20    22   ar
    30    22    23   ar
    31    23    24    1
    32    14    15   ar
    33    15    16   ar
    34     6     1    1
    35    31    29    1
    36    16    12   ar
    37    37    32   ar
    38    23    17   ar
    39    10    11    1
    40     4     7    1
    41    27    28    1
@<TRIPOS>MOLECULE
*****
 37 41 0 0 0
SMALL
GASTEIGER

@<TRIPOS>ATOM
      1 C         141.9456  139.3267  160.5810 C.3     1  UNL1        0.0832
      2 C         142.5137  138.0047  160.1572 C.3     1  UNL1        0.0372
      3 C         142.6983  137.7003  158.7001 C.3     1  UNL1        0.0703
      4 N         142.3148  138.7178  157.6668 N.3     1  UNL1       -0.2970
      5 C         141.7467  140.0397  158.0907 C.3     1  UNL1        0.0794
      6 C         141.5622  140.3442  159.5478 C.3     1  UNL1        0.1101
      7 H         141.6191  138.2779  157.0644 H       1  UNL1        0.1233
      8 O         139.6666  138.0949  162.0938 O.2     1  UNL1       -0.2684
      9 C         140.6215  139.0154  162.7946 C.2     1  UNL1        0.2669
     10 N         141.7610  139.6313  162.0382 N.am    1  UNL1       -0.3006
     11 H         142.3878  140.2353  162.4981 H       1  UNL1        0.1497
     12 C         140.4369  139.3199  164.2517 C.ar    1  UNL1        0.1761
     13 C         141.3037  140.2203  165.0810 C.ar    1  UNL1        0.0673
     14 C         140.7556  140.2344  166.4772 C.ar    1  UNL1        0.1792
     15 O         139.5499  139.3425  166.5107 O.2     1  UNL1       -0.3532
     16 N         139.3530  138.7773  165.1353 N.ar    1  UNL1       -0.0723
     17 C         141.3148  141.0049  167.6363 C.ar    1  UNL1        0.0648
     18 C         140.6607  142.2821  168.0734 C.ar    1  UNL1        0.0077
     19 C         141.2200  143.0526  169.2325 C.ar    1  UNL1        0.0299
     20 C         142.4333  142.5459  169.9544 C.ar    1  UNL1        0.1424
     21 F         142.9925  143.3165  171.1135 F       1  UNL1       -0.2041
     22 C         143.0873  141.2689  169.5173 C.ar    1  UNL1        0.0593
     23 C         142.5281  140.4983  168.3582 C.ar    1  UNL1        0.1453
     24 F         143.1821  139.2212  167.9211 F       1  UNL1       -0.2040
     25 C         140.9941  141.6662  159.9716 C.2     1  UNL1        0.2252
     26 O         139.7197  141.7165  160.7611 O.2     1  UNL1       -0.2750
     27 N         141.7005  142.9380  159.6061 N.am    1  UNL1       -0.3010
     28 H         142.5370  142.9050  159.0879 H       1  UNL1        0.1497
     29 C         141.1325  144.2600  160.0299 C.3     1  UNL1        0.1089
     30 C         140.3045  145.5105  160.0080 C.3     1  UNL1        0.0274
     31 C         140.1867  144.5134  158.8936 C.3     1  UNL1        0.0274
     32 C         141.8811  144.4657  161.3134 C.ar    1  UNL1        0.1549
     33 N         143.3103  144.0247  161.4270 N.ar    1  UNL1       -0.2276
     34 C         144.0589  144.2304  162.7105 C.ar    1  UNL1        0.1019
     35 C         143.3783  144.8770  163.8803 C.ar    1  UNL1        0.0413
     36 C         141.9491  145.3180  163.7667 C.ar    1  UNL1        0.1019
     37 N         141.2004  145.1124  162.4832 N.ar    1  UNL1       -0.2276
@<TRIPOS>BOND
     1     8     9    2
     2     9    10   am
     3     1    10    1
     4     1     2    1
     5     2     3    1
     6     3     4    1
     7     4     5    1
     8     5     6    1
     9     6    25    1
    10    25    26    2
    11    25    27   am
    12    27    29    1
    13    29    32    1
    14    32    33   ar
    15    33    34   ar
    16    34    35   ar
    17    35    36   ar
    18    36    37   ar
    19    29    30    1
    20    30    31    1
    21     9    12    1
    22    12    13   ar
    23    13    14   ar
    24    14    17    1
    25    17    18   ar
    26    18    19   ar
    27    19    20   ar
    28    20    21    1
    29    20    22   ar
    30    22    23   ar
    31    23    24    1
    32    14    15   ar
    33    15    16   ar
    34     6     1    1
    35    31    29    1
    36    16    12   ar
    37    37    32   ar
    38    23    17   ar
    39    10    11    1
    40     4     7    1
    41    27    28    1
