@<TRIPOS>MOLECULE
*****
 24 27 0 0 0
SMALL
GASTEIGER

@<TRIPOS>ATOM
      1 C         140.8340  142.0599  166.4187 C.2     1  UNL1        0.0020
      2 C         140.5310  142.3837  167.8517 C.2     1  UNL1        0.0130
      3 C         141.0852  141.5233  168.9483 C.3     1  UNL1        0.1542
      4 C         140.2281  142.7074  169.2846 C.3     1  UNL1        0.0614
      5 C         139.9251  143.0312  170.7176 C.3     1  UNL1        0.0725
      6 N         140.4794  142.1708  171.8142 N.3     1  UNL1       -0.2972
      7 C         141.3365  140.9867  171.4779 C.3     1  UNL1        0.0725
      8 C         141.6394  140.6629  170.0449 C.3     1  UNL1        0.0614
      9 O         141.9424  140.3391  168.6119 O.3     1  UNL1       -0.4785
     10 C         142.2453  140.0154  167.1790 C.ar    1  UNL1        0.1386
     11 C         143.1025  138.8312  166.8426 C.ar    1  UNL1        0.0369
     12 C         143.4054  138.5075  165.4096 C.ar    1  UNL1        0.0031
     13 C         142.8512  139.3679  164.3130 C.ar    1  UNL1        0.0002
     14 C         141.9941  140.5520  164.6493 C.ar    1  UNL1        0.0030
     15 C         141.6911  140.8758  166.0824 C.ar    1  UNL1        0.0338
     16 H         139.6817  141.8165  172.3421 H       1  UNL1        0.1233
     17 C         139.1713  144.6411  163.1288 C.ar    1  UNL1        0.1387
     18 C         138.3054  143.6018  163.7769 C.ar    1  UNL1        0.0369
     19 C         138.8596  142.7414  164.8735 C.ar    1  UNL1        0.0031
     20 C         140.2798  142.9203  165.3220 C.ar    1  UNL1        0.0001
     21 C         141.1458  143.9596  164.6739 C.ar    1  UNL1        0.0031
     22 C         140.5915  144.8200  163.5773 C.ar    1  UNL1        0.0369
     23 C         139.5084  146.4752  161.3198 C.3     1  UNL1        0.2525
     24 O         138.6171  145.5015  162.0322 O.3     1  UNL1       -0.4714
@<TRIPOS>BOND
     1    23    24    1
     2    24    17    1
     3    17    18   ar
     4    18    19   ar
     5    19    20   ar
     6    20     1    1
     7     1     2    2
     8     2     3    1
     9     3     4    1
    10     4     5    1
    11     5     6    1
    12     6     7    1
    13     7     8    1
    14     3     9    1
    15     9    10    1
    16    10    11   ar
    17    11    12   ar
    18    12    13   ar
    19    13    14   ar
    20    14    15   ar
    21    20    21   ar
    22    21    22   ar
    23    22    17   ar
    24    15     1    1
    25     8     3    1
    26    15    10   ar
    27     6    16    1
@<TRIPOS>MOLECULE
*****
 24 27 0 0 0
SMALL
GASTEIGER

@<TRIPOS>ATOM
      1 C         141.0602  142.1862  165.3927 C.2     1  UNL1        0.0020
      2 C         142.4707  141.8887  164.9778 C.2     1  UNL1        0.0130
      3 C         143.0121  142.4567  163.6995 C.3     1  UNL1        0.1542
      4 C         143.8811  141.5912  164.5629 C.3     1  UNL1        0.0614
      5 C         145.2915  141.2937  164.1480 C.3     1  UNL1        0.0725
      6 N         145.8329  141.8618  162.8696 N.3     1  UNL1       -0.2972
      7 C         144.9639  142.7273  162.0062 C.3     1  UNL1        0.0725
      8 C         143.5535  143.0248  162.4211 C.3     1  UNL1        0.0614
      9 O         142.1430  143.3223  162.8360 O.3     1  UNL1       -0.4785
     10 C         140.7326  143.6198  163.2509 C.ar    1  UNL1        0.1386
     11 C         139.8635  144.4853  162.3874 C.ar    1  UNL1        0.0369
     12 C         138.4531  144.7828  162.8023 C.ar    1  UNL1        0.0031
     13 C         137.9117  144.2148  164.0807 C.ar    1  UNL1        0.0002
     14 C         138.7807  143.3493  164.9442 C.ar    1  UNL1        0.0030
     15 C         140.1912  143.0517  164.5293 C.ar    1  UNL1        0.0338
     16 H         146.1234  141.0703  162.2955 H       1  UNL1        0.1233
     17 C         139.4361  140.4822  169.2279 C.ar    1  UNL1        0.1387
     18 C         139.2351  139.7469  167.9360 C.ar    1  UNL1        0.0369
     19 C         139.7765  140.3149  166.6577 C.ar    1  UNL1        0.0031
     20 C         140.5189  141.6182  166.6711 C.ar    1  UNL1        0.0001
     21 C         140.7199  142.3536  167.9630 C.ar    1  UNL1        0.0031
     22 C         140.1785  141.7855  169.2414 C.ar    1  UNL1        0.0369
     23 C         137.4626  139.4752  170.5848 C.3     1  UNL1        0.2525
     24 O         138.8947  139.9141  170.5063 O.3     1  UNL1       -0.4714
@<TRIPOS>BOND
     1    23    24    1
     2    24    17    1
     3    17    18   ar
     4    18    19   ar
     5    19    20   ar
     6    20     1    1
     7     1     2    2
     8     2     3    1
     9     3     4    1
    10     4     5    1
    11     5     6    1
    12     6     7    1
    13     7     8    1
    14     3     9    1
    15     9    10    1
    16    10    11   ar
    17    11    12   ar
    18    12    13   ar
    19    13    14   ar
    20    14    15   ar
    21    20    21   ar
    22    21    22   ar
    23    22    17   ar
    24    15     1    1
    25     8     3    1
    26    15    10   ar
    27     6    16    1
@<TRIPOS>MOLECULE
*****
 24 27 0 0 0
SMALL
GASTEIGER

@<TRIPOS>ATOM
      1 C         139.9541  142.2030  166.1659 C.2     1  UNL1        0.0020
      2 C         140.3942  142.5764  167.5505 C.2     1  UNL1        0.0130
      3 C         140.3464  141.5597  168.6523 C.3     1  UNL1        0.1542
      4 C         140.8342  142.9497  168.9350 C.3     1  UNL1        0.0614
      5 C         141.2742  143.3230  170.3196 C.3     1  UNL1        0.0725
      6 N         141.2265  142.3063  171.4214 N.3     1  UNL1       -0.2972
      7 C         140.7387  140.9163  171.1387 C.3     1  UNL1        0.0725
      8 C         140.2987  140.5430  169.7542 C.3     1  UNL1        0.0614
      9 O         139.8586  140.1696  168.3696 O.3     1  UNL1       -0.4785
     10 C         139.4186  139.7964  166.9850 C.ar    1  UNL1        0.1386
     11 C         138.9308  138.4063  166.7023 C.ar    1  UNL1        0.0369
     12 C         138.4907  138.0330  165.3177 C.ar    1  UNL1        0.0031
     13 C         138.5385  139.0497  164.2159 C.ar    1  UNL1        0.0002
     14 C         139.0263  140.4397  164.4986 C.ar    1  UNL1        0.0030
     15 C         139.4663  140.8131  165.8832 C.ar    1  UNL1        0.0338
     16 H         140.6218  142.6883  172.1486 H       1  UNL1        0.1233
     17 C         140.0974  145.2531  162.8604 C.ar    1  UNL1        0.1387
     18 C         138.7886  144.9096  163.5077 C.ar    1  UNL1        0.0369
     19 C         138.7409  143.8929  164.6096 C.ar    1  UNL1        0.0031
     20 C         140.0019  143.2197  165.0640 C.ar    1  UNL1        0.0001
     21 C         141.3107  143.5632  164.4167 C.ar    1  UNL1        0.0031
     22 C         141.3585  144.5799  163.3149 C.ar    1  UNL1        0.0369
     23 C         140.2396  145.8234  160.3297 C.3     1  UNL1        0.2525
     24 O         140.1452  146.2698  161.7585 O.3     1  UNL1       -0.4714
@<TRIPOS>BOND
     1    23    24    1
     2    24    17    1
     3    17    18   ar
     4    18    19   ar
     5    19    20   ar
     6    20     1    1
     7     1     2    2
     8     2     3    1
     9     3     4    1
    10     4     5    1
    11     5     6    1
    12     6     7    1
    13     7     8    1
    14     3     9    1
    15     9    10    1
    16    10    11   ar
    17    11    12   ar
    18    12    13   ar
    19    13    14   ar
    20    14    15   ar
    21    20    21   ar
    22    21    22   ar
    23    22    17   ar
    24    15     1    1
    25     8     3    1
    26    15    10   ar
    27     6    16    1
@<TRIPOS>MOLECULE
*****
 24 27 0 0 0
SMALL
GASTEIGER

@<TRIPOS>ATOM
      1 C         141.8965  141.0240  166.4354 C.2     1  UNL1        0.0020
      2 C         142.2839  141.6090  167.7612 C.2     1  UNL1        0.0130
      3 C         141.4125  141.3880  168.9619 C.3     1  UNL1        0.1542
      4 C         142.6712  142.1940  169.0869 C.3     1  UNL1        0.0614
      5 C         143.0586  142.7790  170.4127 C.3     1  UNL1        0.0725
      6 N         142.1871  142.5580  171.6134 N.3     1  UNL1       -0.2972
      7 C         140.9284  141.7519  171.4884 C.3     1  UNL1        0.0725
      8 C         140.5410  141.1669  170.1626 C.3     1  UNL1        0.0614
      9 O         140.1536  140.5819  168.8368 O.3     1  UNL1       -0.4785
     10 C         139.7663  139.9968  167.5110 C.ar    1  UNL1        0.1386
     11 C         138.5074  139.1907  167.3859 C.ar    1  UNL1        0.0369
     12 C         138.1201  138.6057  166.0602 C.ar    1  UNL1        0.0031
     13 C         138.9915  138.8268  164.8595 C.ar    1  UNL1        0.0002
     14 C         140.2503  139.6328  164.9845 C.ar    1  UNL1        0.0030
     15 C         140.6377  140.2179  166.3103 C.ar    1  UNL1        0.0338
     16 H         141.9137  143.4803  171.9526 H       1  UNL1        0.1233
     17 C         144.5108  141.6871  162.8332 C.ar    1  UNL1        0.1387
     18 C         143.4160  142.6607  163.1548 C.ar    1  UNL1        0.0369
     19 C         142.5446  142.4397  164.3555 C.ar    1  UNL1        0.0031
     20 C         142.7679  141.2450  165.2346 C.ar    1  UNL1        0.0001
     21 C         143.8628  140.2714  164.9131 C.ar    1  UNL1        0.0031
     22 C         144.7343  140.4924  163.7124 C.ar    1  UNL1        0.0369
     23 C         144.8146  142.5511  160.4019 C.3     1  UNL1        0.2525
     24 O         145.3823  141.9082  161.6325 O.3     1  UNL1       -0.4714
@<TRIPOS>BOND
     1    23    24    1
     2    24    17    1
     3    17    18   ar
     4    18    19   ar
     5    19    20   ar
     6    20     1    1
     7     1     2    2
     8     2     3    1
     9     3     4    1
    10     4     5    1
    11     5     6    1
    12     6     7    1
    13     7     8    1
    14     3     9    1
    15     9    10    1
    16    10    11   ar
    17    11    12   ar
    18    12    13   ar
    19    13    14   ar
    20    14    15   ar
    21    20    21   ar
    22    21    22   ar
    23    22    17   ar
    24    15     1    1
    25     8     3    1
    26    15    10   ar
    27     6    16    1
@<TRIPOS>MOLECULE
*****
 24 27 0 0 0
SMALL
GASTEIGER

@<TRIPOS>ATOM
      1 C         140.6347  141.5065  165.8750 C.2     1  UNL1        0.0020
      2 C         140.9604  140.1323  165.3691 C.2     1  UNL1        0.0130
      3 C         140.4020  139.6640  164.0580 C.3     1  UNL1        0.1542
      4 C         141.2860  138.7583  164.8631 C.3     1  UNL1        0.0614
      5 C         141.6116  137.3843  164.3572 C.3     1  UNL1        0.0725
      6 N         141.0532  136.9159  163.0462 N.3     1  UNL1       -0.2972
      7 C         140.1692  137.8216  162.2410 C.3     1  UNL1        0.0725
      8 C         139.8436  139.1956  162.7470 C.3     1  UNL1        0.0614
      9 O         139.5179  140.5697  163.2529 O.3     1  UNL1       -0.4785
     10 C         139.1923  141.9437  163.7588 C.ar    1  UNL1        0.1386
     11 C         138.3083  142.8495  162.9536 C.ar    1  UNL1        0.0369
     12 C         137.9827  144.2235  163.4595 C.ar    1  UNL1        0.0031
     13 C         138.5410  144.6919  164.7706 C.ar    1  UNL1        0.0002
     14 C         139.4250  143.7862  165.5757 C.ar    1  UNL1        0.0030
     15 C         139.7507  142.4121  165.0698 C.ar    1  UNL1        0.0338
     16 H         140.5124  136.0733  163.2407 H       1  UNL1        0.1233
     17 C         142.3098  142.9116  169.8081 C.ar    1  UNL1        0.1387
     18 C         143.2325  142.4188  168.7330 C.ar    1  UNL1        0.0369
     19 C         142.6742  141.9504  167.4220 C.ar    1  UNL1        0.0031
     20 C         141.1931  141.9748  167.1860 C.ar    1  UNL1        0.0001
     21 C         140.2703  142.4676  168.2611 C.ar    1  UNL1        0.0031
     22 C         140.8287  142.9360  169.5721 C.ar    1  UNL1        0.0369
     23 C         144.1912  144.0855  171.1617 C.3     1  UNL1        0.2525
     24 O         142.8682  143.3799  171.1191 O.3     1  UNL1       -0.4714
@<TRIPOS>BOND
     1    23    24    1
     2    24    17    1
     3    17    18   ar
     4    18    19   ar
     5    19    20   ar
     6    20     1    1
     7     1     2    2
     8     2     3    1
     9     3     4    1
    10     4     5    1
    11     5     6    1
    12     6     7    1
    13     7     8    1
    14     3     9    1
    15     9    10    1
    16    10    11   ar
    17    11    12   ar
    18    12    13   ar
    19    13    14   ar
    20    14    15   ar
    21    20    21   ar
    22    21    22   ar
    23    22    17   ar
    24    15     1    1
    25     8     3    1
    26    15    10   ar
    27     6    16    1
@<TRIPOS>MOLECULE
*****
 24 27 0 0 0
SMALL
GASTEIGER

@<TRIPOS>ATOM
      1 C         141.2481  142.2776  164.7569 C.2     1  UNL1        0.0020
      2 C         140.4489  143.3045  164.0108 C.2     1  UNL1        0.0130
      3 C         140.9834  143.8913  162.7380 C.3     1  UNL1        0.1542
      4 C         139.6496  144.3314  163.2647 C.3     1  UNL1        0.0614
      5 C         138.8504  145.3583  162.5186 C.3     1  UNL1        0.0725
      6 N         139.3849  145.9451  161.2458 N.3     1  UNL1       -0.2972
      7 C         140.7187  145.5050  160.7191 C.3     1  UNL1        0.0725
      8 C         141.5179  144.4781  161.4652 C.3     1  UNL1        0.0614
      9 O         142.3172  143.4512  162.2113 O.3     1  UNL1       -0.4785
     10 C         143.1164  142.4243  162.9574 C.ar    1  UNL1        0.1386
     11 C         144.4502  141.9841  162.4307 C.ar    1  UNL1        0.0369
     12 C         145.2494  140.9572  163.1768 C.ar    1  UNL1        0.0031
     13 C         144.7149  140.3704  164.4496 C.ar    1  UNL1        0.0002
     14 C         143.3812  140.8105  164.9763 C.ar    1  UNL1        0.0030
     15 C         142.5819  141.8375  164.2302 C.ar    1  UNL1        0.0338
     16 H         139.4427  146.9535  161.3879 H       1  UNL1        0.1233
     17 C         139.6446  140.5172  168.5752 C.ar    1  UNL1        0.1387
     18 C         140.4316  141.7937  168.6103 C.ar    1  UNL1        0.0369
     19 C         140.9661  142.3805  167.3375 C.ar    1  UNL1        0.0031
     20 C         140.7136  141.6908  166.0297 C.ar    1  UNL1        0.0001
     21 C         139.9266  140.4143  165.9945 C.ar    1  UNL1        0.0031
     22 C         139.3921  139.8275  167.2673 C.ar    1  UNL1        0.0369
     23 C         139.9751  139.8813  171.0725 C.3     1  UNL1        0.2525
     24 O         139.1101  139.9305  169.8480 O.3     1  UNL1       -0.4714
@<TRIPOS>BOND
     1    23    24    1
     2    24    17    1
     3    17    18   ar
     4    18    19   ar
     5    19    20   ar
     6    20     1    1
     7     1     2    2
     8     2     3    1
     9     3     4    1
    10     4     5    1
    11     5     6    1
    12     6     7    1
    13     7     8    1
    14     3     9    1
    15     9    10    1
    16    10    11   ar
    17    11    12   ar
    18    12    13   ar
    19    13    14   ar
    20    14    15   ar
    21    20    21   ar
    22    21    22   ar
    23    22    17   ar
    24    15     1    1
    25     8     3    1
    26    15    10   ar
    27     6    16    1
@<TRIPOS>MOLECULE
*****
 24 27 0 0 0
SMALL
GASTEIGER

@<TRIPOS>ATOM
      1 C         140.8425  140.8697  166.1830 C.2     1  UNL1        0.0020
      2 C         140.4805  140.6056  167.6145 C.2     1  UNL1        0.0130
      3 C         141.3308  141.1616  168.7180 C.3     1  UNL1        0.1542
      4 C         140.1185  140.3414  169.0460 C.3     1  UNL1        0.0614
      5 C         139.7565  140.0773  170.4775 C.3     1  UNL1        0.0725
      6 N         140.6069  140.6333  171.5810 N.3     1  UNL1       -0.2972
      7 C         141.8192  141.4534  171.2530 C.3     1  UNL1        0.0725
      8 C         142.1812  141.7175  169.8215 C.3     1  UNL1        0.0614
      9 O         142.5432  141.9817  168.3900 O.3     1  UNL1       -0.4785
     10 C         142.9052  142.2458  166.9585 C.ar    1  UNL1        0.1386
     11 C         144.1176  143.0660  166.6305 C.ar    1  UNL1        0.0369
     12 C         144.4796  143.3301  165.1990 C.ar    1  UNL1        0.0031
     13 C         143.6292  142.7741  164.0955 C.ar    1  UNL1        0.0002
     14 C         142.4169  141.9540  164.4235 C.ar    1  UNL1        0.0030
     15 C         142.0548  141.6899  165.8550 C.ar    1  UNL1        0.0338
     16 H         140.9295  139.8386  172.1330 H       1  UNL1        0.1233
     17 C         138.2914  139.2018  162.8724 C.ar    1  UNL1        0.1387
     18 C         138.0257  140.5796  163.4025 C.ar    1  UNL1        0.0369
     19 C         138.8760  141.1356  164.5060 C.ar    1  UNL1        0.0031
     20 C         139.9921  140.3138  165.0794 C.ar    1  UNL1        0.0001
     21 C         140.2579  138.9359  164.5494 C.ar    1  UNL1        0.0031
     22 C         139.4075  138.3799  163.4459 C.ar    1  UNL1        0.0369
     23 C         137.1513  139.4766  160.5541 C.3     1  UNL1        0.2525
     24 O         137.4410  138.6458  161.7689 O.3     1  UNL1       -0.4714
@<TRIPOS>BOND
     1    23    24    1
     2    24    17    1
     3    17    18   ar
     4    18    19   ar
     5    19    20   ar
     6    20     1    1
     7     1     2    2
     8     2     3    1
     9     3     4    1
    10     4     5    1
    11     5     6    1
    12     6     7    1
    13     7     8    1
    14     3     9    1
    15     9    10    1
    16    10    11   ar
    17    11    12   ar
    18    12    13   ar
    19    13    14   ar
    20    14    15   ar
    21    20    21   ar
    22    21    22   ar
    23    22    17   ar
    24    15     1    1
    25     8     3    1
    26    15    10   ar
    27     6    16    1
@<TRIPOS>MOLECULE
*****
 24 27 0 0 0
SMALL
GASTEIGER

@<TRIPOS>ATOM
      1 C         141.7844  140.9433  166.0957 C.2     1  UNL1        0.0020
      2 C         142.1104  140.5886  167.5163 C.2     1  UNL1        0.0130
      3 C         141.5409  141.4005  168.6416 C.3     1  UNL1        0.1542
      4 C         142.4365  140.2340  168.9368 C.3     1  UNL1        0.0614
      5 C         142.7625  139.8794  170.3573 C.3     1  UNL1        0.0725
      6 N         142.1930  140.6913  171.4826 N.3     1  UNL1       -0.2972
      7 C         141.2974  141.8578  171.1875 C.3     1  UNL1        0.0725
      8 C         140.9714  142.2124  169.7670 C.3     1  UNL1        0.0614
      9 O         140.6453  142.5671  168.3464 O.3     1  UNL1       -0.4785
     10 C         140.3192  142.9217  166.9259 C.ar    1  UNL1        0.1386
     11 C         139.4236  144.0883  166.6307 C.ar    1  UNL1        0.0369
     12 C         139.0976  144.4429  165.2102 C.ar    1  UNL1        0.0031
     13 C         139.6671  143.6310  164.0848 C.ar    1  UNL1        0.0002
     14 C         140.5627  142.4645  164.3800 C.ar    1  UNL1        0.0030
     15 C         140.8888  142.1098  165.8005 C.ar    1  UNL1        0.0338
     16 H         142.9845  141.0547  172.0135 H       1  UNL1        0.1233
     17 C         143.4930  138.5076  162.7196 C.ar    1  UNL1        0.1387
     18 C         142.1473  138.1640  163.2862 C.ar    1  UNL1        0.0369
     19 C         141.5778  138.9759  164.4115 C.ar    1  UNL1        0.0031
     20 C         142.3539  140.1314  164.9703 C.ar    1  UNL1        0.0001
     21 C         143.6996  140.4752  164.4037 C.ar    1  UNL1        0.0031
     22 C         144.2692  139.6633  163.2783 C.ar    1  UNL1        0.0369
     23 C         143.2492  137.4542  160.3572 C.3     1  UNL1        0.2525
     24 O         144.0625  137.6958  161.5942 O.3     1  UNL1       -0.4714
@<TRIPOS>BOND
     1    23    24    1
     2    24    17    1
     3    17    18   ar
     4    18    19   ar
     5    19    20   ar
     6    20     1    1
     7     1     2    2
     8     2     3    1
     9     3     4    1
    10     4     5    1
    11     5     6    1
    12     6     7    1
    13     7     8    1
    14     3     9    1
    15     9    10    1
    16    10    11   ar
    17    11    12   ar
    18    12    13   ar
    19    13    14   ar
    20    14    15   ar
    21    20    21   ar
    22    21    22   ar
    23    22    17   ar
    24    15     1    1
    25     8     3    1
    26    15    10   ar
    27     6    16    1
@<TRIPOS>MOLECULE
*****
 24 27 0 0 0
SMALL
GASTEIGER

@<TRIPOS>ATOM
      1 C         141.9957  140.1611  164.8734 C.2     1  UNL1        0.0020
      2 C         140.8855  139.4241  164.1847 C.2     1  UNL1        0.0130
      3 C         140.9134  139.2472  162.6954 C.3     1  UNL1        0.1542
      4 C         139.7753  138.6870  163.4960 C.3     1  UNL1        0.0614
      5 C         138.6651  137.9500  162.8074 C.3     1  UNL1        0.0725
      6 N         138.6930  137.7731  161.3181 N.3     1  UNL1       -0.2972
      7 C         139.8311  138.3333  160.5175 C.3     1  UNL1        0.0725
      8 C         140.9413  139.0703  161.2062 C.3     1  UNL1        0.0614
      9 O         142.0515  139.8073  161.8948 O.3     1  UNL1       -0.4785
     10 C         143.1617  140.5444  162.5835 C.ar    1  UNL1        0.1386
     11 C         144.2998  141.1045  161.7829 C.ar    1  UNL1        0.0369
     12 C         145.4100  141.8415  162.4715 C.ar    1  UNL1        0.0031
     13 C         145.3821  142.0184  163.9608 C.ar    1  UNL1        0.0002
     14 C         144.2440  141.4583  164.7614 C.ar    1  UNL1        0.0030
     15 C         143.1338  140.7212  164.0728 C.ar    1  UNL1        0.0338
     16 H         137.8401  138.1986  160.9550 H       1  UNL1        0.1233
     17 C         141.9120  140.6918  169.3412 C.ar    1  UNL1        0.1387
     18 C         141.2832  141.7228  168.4515 C.ar    1  UNL1        0.0369
     19 C         141.3111  141.5460  166.9623 C.ar    1  UNL1        0.0031
     20 C         141.9678  140.3380  166.3626 C.ar    1  UNL1        0.0001
     21 C         142.5966  139.3069  167.2523 C.ar    1  UNL1        0.0031
     22 C         142.5687  139.4838  168.7416 C.ar    1  UNL1        0.0369
     23 C         140.9179  141.8322  171.4533 C.3     1  UNL1        0.2525
     24 O         141.8841  140.8687  170.8305 O.3     1  UNL1       -0.4714
@<TRIPOS>BOND
     1    23    24    1
     2    24    17    1
     3    17    18   ar
     4    18    19   ar
     5    19    20   ar
     6    20     1    1
     7     1     2    2
     8     2     3    1
     9     3     4    1
    10     4     5    1
    11     5     6    1
    12     6     7    1
    13     7     8    1
    14     3     9    1
    15     9    10    1
    16    10    11   ar
    17    11    12   ar
    18    12    13   ar
    19    13    14   ar
    20    14    15   ar
    21    20    21   ar
    22    21    22   ar
    23    22    17   ar
    24    15     1    1
    25     8     3    1
    26    15    10   ar
    27     6    16    1
