@<TRIPOS>MOLECULE
*****
 40 44 0 0 0
SMALL
GASTEIGER

@<TRIPOS>ATOM
      1 C         143.0944  139.9529  160.6348 C.3     1  UNL1        0.0522
      2 C         142.1046  139.5445  159.5843 C.ar    1  UNL1        0.0637
      3 N         142.3923  138.3677  158.6999 N.ar    1  UNL1       -0.2180
      4 C         141.4025  137.9593  157.6493 C.ar    1  UNL1        0.2198
      5 N         140.1252  138.7279  157.4831 N.ar    1  UNL1       -0.2136
      6 C         139.8375  139.9049  158.3675 C.ar    1  UNL1        0.0854
      7 C         138.5602  140.6734  158.2013 C.ar    1  UNL1        0.0205
      8 C         138.2726  141.8503  159.0856 C.ar    1  UNL1        0.0162
      9 C         139.2623  142.2586  160.1362 C.ar    1  UNL1        0.0505
     10 C         140.5396  141.4901  160.3024 C.ar    1  UNL1        0.0173
     11 C         140.8272  140.3132  159.4181 C.ar    1  UNL1        0.0326
     12 N         141.6902  136.7824  156.7649 N.pl3   1  UNL1       -0.2781
     13 C         142.9635  136.0084  156.9369 C.3     1  UNL1        0.0953
     14 C         143.2511  134.8315  156.0526 C.3     1  UNL1        0.0414
     15 C         142.2654  134.4286  154.9961 C.3     1  UNL1        0.0787
     16 C         140.9921  135.2026  154.8241 C.3     1  UNL1        0.0414
     17 C         140.7045  136.3794  155.7084 C.3     1  UNL1        0.0953
     18 N         142.5531  133.2516  154.1117 N.am    1  UNL1       -0.2810
     19 C         142.1524  133.1110  152.6731 C.3     1  UNL1        0.0938
     20 C         142.6436  131.7812  152.1829 C.3     1  UNL1        0.0311
     21 C         143.3479  131.1000  153.3186 C.3     1  UNL1        0.0870
     22 C         143.2920  132.0087  154.5107 C.2     1  UNL1        0.2256
     23 O         143.8730  131.7245  155.8641 O.2     1  UNL1       -0.2749
     24 N         138.9746  143.4356  161.0206 N.am    1  UNL1       -0.2809
     25 C         138.0462  143.2864  162.1893 C.2     1  UNL1        0.2707
     26 O         137.4055  141.9603  162.4736 O.2     1  UNL1       -0.2707
     27 H         139.3951  144.3060  160.8340 H       1  UNL1        0.1550
     28 C         137.7586  144.4634  163.0737 C.3     1  UNL1        0.2897
     29 O         138.5780  144.6911  164.3092 O.3     1  UNL1       -0.4656
     30 C         140.0488  144.3969  164.2985 C.ar    1  UNL1        0.1395
     31 C         140.5772  143.1883  165.0127 C.ar    1  UNL1        0.0400
     32 C         142.0480  142.8941  165.0019 C.ar    1  UNL1        0.0403
     33 C         142.9905  143.8085  164.2770 C.ar    1  UNL1        0.1470
     34 C         142.4621  145.0171  163.5628 C.ar    1  UNL1        0.0403
     35 C         140.9913  145.3113  163.5735 C.ar    1  UNL1        0.0400
     36 O         144.4613  143.5143  164.2662 O.3     1  UNL1       -0.4045
     37 C         144.9933  142.3803  163.4409 C.3     1  UNL1        0.5753
     38 F         145.5253  141.2464  162.6157 F       1  UNL1       -0.1328
     39 F         145.0843  141.5274  164.6715 F       1  UNL1       -0.1328
     40 F         144.9023  143.2332  162.2104 F       1  UNL1       -0.1328
@<TRIPOS>BOND
     1     1     2    1
     2     2     3   ar
     3     3     4   ar
     4     4    12    1
     5    12    13    1
     6    13    14    1
     7    14    15    1
     8    15    18    1
     9    18    19    1
    10    19    20    1
    11    20    21    1
    12    21    22    1
    13    22    23    2
    14    15    16    1
    15    16    17    1
    16     4     5   ar
    17     5     6   ar
    18     6     7   ar
    19     7     8   ar
    20     8     9   ar
    21     9    24    1
    22    24    25   am
    23    25    26    2
    24    25    28    1
    25    28    29    1
    26    29    30    1
    27    30    31   ar
    28    31    32   ar
    29    32    33   ar
    30    33    36    1
    31    36    37    1
    32    37    38    1
    33    37    39    1
    34    37    40    1
    35    33    34   ar
    36    34    35   ar
    37     9    10   ar
    38    10    11   ar
    39    11     2   ar
    40    17    12    1
    41    11     6   ar
    42    22    18   am
    43    35    30   ar
    44    24    27    1
@<TRIPOS>MOLECULE
*****
 40 44 0 0 0
SMALL
GASTEIGER

@<TRIPOS>ATOM
      1 C         143.2984  137.3045  160.3023 C.3     1  UNL1        0.0522
      2 C         142.2151  138.2914  160.6221 C.ar    1  UNL1        0.0637
      3 N         142.0349  138.7773  162.0297 N.ar    1  UNL1       -0.2180
      4 C         140.9515  139.7642  162.3496 C.ar    1  UNL1        0.2198
      5 N         140.0483  140.2653  161.2619 N.ar    1  UNL1       -0.2136
      6 C         140.2285  139.7794  159.8542 C.ar    1  UNL1        0.0854
      7 C         139.3254  140.2805  158.7665 C.ar    1  UNL1        0.0205
      8 C         139.5056  139.7946  157.3589 C.ar    1  UNL1        0.0162
      9 C         140.5889  138.8077  157.0390 C.ar    1  UNL1        0.0505
     10 C         141.4921  138.3066  158.1267 C.ar    1  UNL1        0.0173
     11 C         141.3119  138.7925  159.5343 C.ar    1  UNL1        0.0326
     12 N         140.7713  140.2501  163.7573 N.pl3   1  UNL1       -0.2781
     13 C         139.4083  140.2463  164.3834 C.3     1  UNL1        0.0953
     14 C         139.2282  140.7322  165.7910 C.3     1  UNL1        0.0414
     15 C         140.4111  141.2218  166.5726 C.3     1  UNL1        0.0787
     16 C         141.7742  141.2256  165.9465 C.3     1  UNL1        0.0414
     17 C         141.9543  140.7398  164.5389 C.3     1  UNL1        0.0953
     18 N         140.2309  141.7077  167.9803 N.am    1  UNL1       -0.2810
     19 C         140.6414  143.0501  168.5090 C.3     1  UNL1        0.0938
     20 C         140.2728  143.1086  169.9618 C.3     1  UNL1        0.0311
     21 C         139.6346  141.8022  170.3310 C.3     1  UNL1        0.0870
     22 C         139.6087  140.9365  169.1064 C.2     1  UNL1        0.2256
     23 O         139.0574  139.5440  169.0225 O.2     1  UNL1       -0.2749
     24 N         140.7691  138.3218  155.6313 N.am    1  UNL1       -0.2809
     25 C         139.8237  137.3061  155.0616 C.2     1  UNL1        0.2707
     26 O         138.6980  136.7763  155.8996 O.2     1  UNL1       -0.2707
     27 H         141.5079  138.6695  155.0813 H       1  UNL1        0.1550
     28 C         140.0038  136.8202  153.6539 C.3     1  UNL1        0.2897
     29 O         141.1985  135.9871  153.2952 O.3     1  UNL1       -0.4656
     30 C         141.7865  135.0457  154.3040 C.ar    1  UNL1        0.1395
     31 C         141.1078  133.7403  154.5966 C.ar    1  UNL1        0.0400
     32 C         141.6959  132.7988  155.6054 C.ar    1  UNL1        0.0403
     33 C         142.9625  133.1627  156.3218 C.ar    1  UNL1        0.1470
     34 C         143.6412  134.4680  156.0293 C.ar    1  UNL1        0.0403
     35 C         143.0531  135.4095  155.0204 C.ar    1  UNL1        0.0400
     36 O         143.5506  132.2212  157.3306 O.3     1  UNL1       -0.4045
     37 C         144.9514  132.4305  157.8247 C.3     1  UNL1        0.5753
     38 F         146.3521  132.6399  158.3187 F       1  UNL1       -0.1328
     39 F         145.4372  131.3494  156.9054 F       1  UNL1       -0.1328
     40 F         144.4656  133.5117  158.7439 F       1  UNL1       -0.1328
@<TRIPOS>BOND
     1     1     2    1
     2     2     3   ar
     3     3     4   ar
     4     4    12    1
     5    12    13    1
     6    13    14    1
     7    14    15    1
     8    15    18    1
     9    18    19    1
    10    19    20    1
    11    20    21    1
    12    21    22    1
    13    22    23    2
    14    15    16    1
    15    16    17    1
    16     4     5   ar
    17     5     6   ar
    18     6     7   ar
    19     7     8   ar
    20     8     9   ar
    21     9    24    1
    22    24    25   am
    23    25    26    2
    24    25    28    1
    25    28    29    1
    26    29    30    1
    27    30    31   ar
    28    31    32   ar
    29    32    33   ar
    30    33    36    1
    31    36    37    1
    32    37    38    1
    33    37    39    1
    34    37    40    1
    35    33    34   ar
    36    34    35   ar
    37     9    10   ar
    38    10    11   ar
    39    11     2   ar
    40    17    12    1
    41    11     6   ar
    42    22    18   am
    43    35    30   ar
    44    24    27    1
@<TRIPOS>MOLECULE
*****
 40 44 0 0 0
SMALL
GASTEIGER

@<TRIPOS>ATOM
      1 C         144.5564  141.2976  156.9961 C.3     1  UNL1        0.0522
      2 C         143.6418  140.1897  157.4276 C.ar    1  UNL1        0.0637
      3 N         143.7407  138.8404  156.7801 N.ar    1  UNL1       -0.2180
      4 C         142.8261  137.7325  157.2116 C.ar    1  UNL1        0.2198
      5 N         141.8126  137.9741  158.2907 N.ar    1  UNL1       -0.2136
      6 C         141.7137  139.3235  158.9383 C.ar    1  UNL1        0.0854
      7 C         140.7002  139.5651  160.0174 C.ar    1  UNL1        0.0205
      8 C         140.6013  140.9145  160.6649 C.ar    1  UNL1        0.0162
      9 C         141.5159  142.0223  160.2334 C.ar    1  UNL1        0.0505
     10 C         142.5294  141.7807  159.1543 C.ar    1  UNL1        0.0173
     11 C         142.6283  140.4314  158.5068 C.ar    1  UNL1        0.0326
     12 N         142.9251  136.3831  156.5641 N.pl3   1  UNL1       -0.2781
     13 C         143.1624  135.1635  157.4044 C.3     1  UNL1        0.0953
     14 C         143.2614  133.8142  156.7568 C.3     1  UNL1        0.0414
     15 C         143.1230  133.6844  155.2689 C.3     1  UNL1        0.0787
     16 C         142.8856  134.9040  154.4285 C.3     1  UNL1        0.0414
     17 C         142.7867  136.2533  155.0761 C.3     1  UNL1        0.0953
     18 N         143.2219  132.3350  154.6213 N.am    1  UNL1       -0.2810
     19 C         142.3432  131.8187  153.5206 C.3     1  UNL1        0.0938
     20 C         142.7951  130.4296  153.1797 C.3     1  UNL1        0.0311
     21 C         143.9531  130.0874  154.0697 C.3     1  UNL1        0.0870
     22 C         144.2168  131.2650  154.9606 C.2     1  UNL1        0.2256
     23 O         145.2876  131.3565  156.0071 O.2     1  UNL1       -0.2749
     24 N         141.4169  143.3717  160.8809 N.am    1  UNL1       -0.2809
     25 C         140.2902  144.2947  160.5227 C.2     1  UNL1        0.2707
     26 O         139.2623  143.8684  159.5169 O.2     1  UNL1       -0.2707
     27 H         142.0916  143.6516  161.5411 H       1  UNL1        0.1550
     28 C         140.1912  145.6442  161.1703 C.3     1  UNL1        0.2897
     29 O         139.5869  145.7779  162.5366 O.3     1  UNL1       -0.4656
     30 C         139.3786  144.5599  163.3869 C.ar    1  UNL1        0.1395
     31 C         138.0684  143.8307  163.3444 C.ar    1  UNL1        0.0400
     32 C         137.8600  142.6127  164.1948 C.ar    1  UNL1        0.0403
     33 C         138.9618  142.1239  165.0876 C.ar    1  UNL1        0.1470
     34 C         140.2719  142.8531  165.1302 C.ar    1  UNL1        0.0403
     35 C         140.4803  144.0711  164.2798 C.ar    1  UNL1        0.0400
     36 O         138.7535  140.9060  165.9380 O.3     1  UNL1       -0.4045
     37 C         138.5655  139.5645  165.2935 C.3     1  UNL1        0.5753
     38 F         138.3776  138.2231  164.6492 F       1  UNL1       -0.1328
     39 F         139.5738  139.9274  164.2440 F       1  UNL1       -0.1328
     40 F         137.5572  139.2016  166.3431 F       1  UNL1       -0.1328
@<TRIPOS>BOND
     1     1     2    1
     2     2     3   ar
     3     3     4   ar
     4     4    12    1
     5    12    13    1
     6    13    14    1
     7    14    15    1
     8    15    18    1
     9    18    19    1
    10    19    20    1
    11    20    21    1
    12    21    22    1
    13    22    23    2
    14    15    16    1
    15    16    17    1
    16     4     5   ar
    17     5     6   ar
    18     6     7   ar
    19     7     8   ar
    20     8     9   ar
    21     9    24    1
    22    24    25   am
    23    25    26    2
    24    25    28    1
    25    28    29    1
    26    29    30    1
    27    30    31   ar
    28    31    32   ar
    29    32    33   ar
    30    33    36    1
    31    36    37    1
    32    37    38    1
    33    37    39    1
    34    37    40    1
    35    33    34   ar
    36    34    35   ar
    37     9    10   ar
    38    10    11   ar
    39    11     2   ar
    40    17    12    1
    41    11     6   ar
    42    22    18   am
    43    35    30   ar
    44    24    27    1
@<TRIPOS>MOLECULE
*****
 40 44 0 0 0
SMALL
GASTEIGER

@<TRIPOS>ATOM
      1 C         142.9582  138.7453  161.4534 C.3     1  UNL1        0.0522
      2 C         142.7598  138.7029  159.9672 C.ar    1  UNL1        0.0637
      3 N         142.9527  137.4159  159.2212 N.ar    1  UNL1       -0.2180
      4 C         142.7543  137.3735  157.7349 C.ar    1  UNL1        0.2198
      5 N         142.3629  138.6181  156.9947 N.ar    1  UNL1       -0.2136
      6 C         142.1700  139.9051  157.7407 C.ar    1  UNL1        0.0854
      7 C         141.7787  141.1496  157.0005 C.ar    1  UNL1        0.0205
      8 C         141.5858  142.4365  157.7465 C.ar    1  UNL1        0.0162
      9 C         141.7842  142.4789  159.2327 C.ar    1  UNL1        0.0505
     10 C         142.1755  141.2344  159.9730 C.ar    1  UNL1        0.0173
     11 C         142.3684  139.9475  159.2269 C.ar    1  UNL1        0.0326
     12 N         142.9472  136.0865  156.9889 N.pl3   1  UNL1       -0.2781
     13 C         142.7112  136.0351  155.5085 C.3     1  UNL1        0.0953
     14 C         142.9041  134.7481  154.7626 C.3     1  UNL1        0.0414
     15 C         143.3331  133.5126  155.4971 C.3     1  UNL1        0.0787
     16 C         143.5691  133.5640  156.9775 C.3     1  UNL1        0.0414
     17 C         143.3762  134.8510  157.7234 C.3     1  UNL1        0.0953
     18 N         143.5260  132.2256  154.7511 N.am    1  UNL1       -0.2810
     19 C         142.8746  131.8532  153.4522 C.3     1  UNL1        0.0938
     20 C         143.3502  130.4825  153.0713 C.3     1  UNL1        0.0311
     21 C         144.2955  130.0078  154.1349 C.3     1  UNL1        0.0870
     22 C         144.4041  131.0850  155.1730 C.2     1  UNL1        0.2256
     23 O         145.2436  131.0312  156.4149 O.2     1  UNL1       -0.2749
     24 N         141.5913  143.7659  159.9787 N.am    1  UNL1       -0.2809
     25 C         140.2083  144.2988  160.2098 C.2     1  UNL1        0.2707
     26 O         139.0182  143.5448  159.6949 O.2     1  UNL1       -0.2707
     27 H         142.3723  144.2609  160.3167 H       1  UNL1        0.1550
     28 C         140.0154  145.5859  160.9558 C.3     1  UNL1        0.2897
     29 O         139.1179  145.6293  162.1569 O.3     1  UNL1       -0.4656
     30 C         139.0507  144.4535  163.0858 C.ar    1  UNL1        0.1395
     31 C         137.8319  143.5791  163.1019 C.ar    1  UNL1        0.0400
     32 C         137.7647  142.4033  164.0308 C.ar    1  UNL1        0.0403
     33 C         138.9162  142.1017  164.9436 C.ar    1  UNL1        0.1470
     34 C         140.1349  142.9760  164.9275 C.ar    1  UNL1        0.0403
     35 C         140.2022  144.1519  163.9985 C.ar    1  UNL1        0.0400
     36 O         138.8490  140.9259  165.8724 O.3     1  UNL1       -0.4045
     37 C         138.6314  139.5473  165.3227 C.3     1  UNL1        0.5753
     38 F         138.4137  138.1687  164.7731 F       1  UNL1       -0.1328
     39 F         139.7355  139.7681  164.3317 F       1  UNL1       -0.1328
     40 F         137.5273  139.3265  166.3137 F       1  UNL1       -0.1328
@<TRIPOS>BOND
     1     1     2    1
     2     2     3   ar
     3     3     4   ar
     4     4    12    1
     5    12    13    1
     6    13    14    1
     7    14    15    1
     8    15    18    1
     9    18    19    1
    10    19    20    1
    11    20    21    1
    12    21    22    1
    13    22    23    2
    14    15    16    1
    15    16    17    1
    16     4     5   ar
    17     5     6   ar
    18     6     7   ar
    19     7     8   ar
    20     8     9   ar
    21     9    24    1
    22    24    25   am
    23    25    26    2
    24    25    28    1
    25    28    29    1
    26    29    30    1
    27    30    31   ar
    28    31    32   ar
    29    32    33   ar
    30    33    36    1
    31    36    37    1
    32    37    38    1
    33    37    39    1
    34    37    40    1
    35    33    34   ar
    36    34    35   ar
    37     9    10   ar
    38    10    11   ar
    39    11     2   ar
    40    17    12    1
    41    11     6   ar
    42    22    18   am
    43    35    30   ar
    44    24    27    1
@<TRIPOS>MOLECULE
*****
 40 44 0 0 0
SMALL
GASTEIGER

@<TRIPOS>ATOM
      1 C         140.0327  139.6612  160.4850 C.3     1  UNL1        0.0522
      2 C         141.1444  139.4985  159.4911 C.ar    1  UNL1        0.0637
      3 N         141.1732  138.3018  158.5873 N.ar    1  UNL1       -0.2180
      4 C         142.2848  138.1391  157.5934 C.ar    1  UNL1        0.2198
      5 N         143.3676  139.1732  157.5033 N.ar    1  UNL1       -0.2136
      6 C         143.3388  140.3700  158.4071 C.ar    1  UNL1        0.0854
      7 C         144.4216  141.4041  158.3170 C.ar    1  UNL1        0.0205
      8 C         144.3928  142.6009  159.2208 C.ar    1  UNL1        0.0162
      9 C         143.2812  142.7636  160.2147 C.ar    1  UNL1        0.0505
     10 C         142.1984  141.7295  160.3048 C.ar    1  UNL1        0.0173
     11 C         142.2272  140.5327  159.4010 C.ar    1  UNL1        0.0326
     12 N         142.3136  136.9422  156.6896 N.pl3   1  UNL1       -0.2781
     13 C         143.5726  136.1391  156.5484 C.3     1  UNL1        0.0953
     14 C         143.6013  134.9424  155.6447 C.3     1  UNL1        0.0414
     15 C         142.3711  134.5487  154.8821 C.3     1  UNL1        0.0787
     16 C         141.1121  135.3518  155.0233 C.3     1  UNL1        0.0414
     17 C         141.0834  136.5485  155.9270 C.3     1  UNL1        0.0953
     18 N         142.3999  133.3518  153.9783 N.am    1  UNL1       -0.2810
     19 C         141.6487  133.2027  152.6885 C.3     1  UNL1        0.0938
     20 C         141.9694  131.8528  152.1186 C.3     1  UNL1        0.0311
     21 C         142.9188  131.1675  153.0563 C.3     1  UNL1        0.0870
     22 C         143.1848  132.0940  154.2056 C.2     1  UNL1        0.2256
     23 O         144.0788  131.8121  155.3766 O.2     1  UNL1       -0.2749
     24 N         143.2524  143.9604  161.1185 N.am    1  UNL1       -0.2809
     25 C         143.7327  143.8426  162.5346 C.2     1  UNL1        0.2707
     26 O         144.2418  142.5279  163.0470 O.2     1  UNL1       -0.2707
     27 H         142.9183  144.8233  160.7822 H       1  UNL1        0.1550
     28 C         143.7039  145.0394  163.4384 C.3     1  UNL1        0.2897
     29 O         142.3932  145.5699  163.9389 O.3     1  UNL1       -0.4656
     30 C         141.1694  144.7035  163.8999 C.ar    1  UNL1        0.1395
     31 C         140.9925  143.6094  164.9107 C.ar    1  UNL1        0.0400
     32 C         139.7686  142.7429  164.8716 C.ar    1  UNL1        0.0403
     33 C         138.7217  142.9706  163.8218 C.ar    1  UNL1        0.1470
     34 C         138.8986  144.0647  162.8111 C.ar    1  UNL1        0.0403
     35 C         140.1224  144.9312  162.8501 C.ar    1  UNL1        0.0400
     36 O         137.4979  142.1042  163.7828 O.3     1  UNL1       -0.4045
     37 C         137.5779  140.7183  163.2143 C.3     1  UNL1        0.5753
     38 F         137.6579  139.3326  162.6458 F       1  UNL1       -0.1328
     39 F         137.7743  140.1637  164.5940 F       1  UNL1       -0.1328
     40 F         137.3814  141.2730  161.8346 F       1  UNL1       -0.1328
@<TRIPOS>BOND
     1     1     2    1
     2     2     3   ar
     3     3     4   ar
     4     4    12    1
     5    12    13    1
     6    13    14    1
     7    14    15    1
     8    15    18    1
     9    18    19    1
    10    19    20    1
    11    20    21    1
    12    21    22    1
    13    22    23    2
    14    15    16    1
    15    16    17    1
    16     4     5   ar
    17     5     6   ar
    18     6     7   ar
    19     7     8   ar
    20     8     9   ar
    21     9    24    1
    22    24    25   am
    23    25    26    2
    24    25    28    1
    25    28    29    1
    26    29    30    1
    27    30    31   ar
    28    31    32   ar
    29    32    33   ar
    30    33    36    1
    31    36    37    1
    32    37    38    1
    33    37    39    1
    34    37    40    1
    35    33    34   ar
    36    34    35   ar
    37     9    10   ar
    38    10    11   ar
    39    11     2   ar
    40    17    12    1
    41    11     6   ar
    42    22    18   am
    43    35    30   ar
    44    24    27    1
@<TRIPOS>MOLECULE
*****
 40 44 0 0 0
SMALL
GASTEIGER

@<TRIPOS>ATOM
      1 C         143.3251  139.1840  161.2235 C.3     1  UNL1        0.0522
      2 C         142.9469  139.0862  159.7753 C.ar    1  UNL1        0.0637
      3 N         143.0967  137.7833  159.0473 N.ar    1  UNL1       -0.2180
      4 C         142.7185  137.6855  157.5991 C.ar    1  UNL1        0.2198
      5 N         142.1904  138.8906  156.8788 N.ar    1  UNL1       -0.2136
      6 C         142.0405  140.1935  157.6068 C.ar    1  UNL1        0.0854
      7 C         141.5124  141.3986  156.8865 C.ar    1  UNL1        0.0205
      8 C         141.3625  142.7015  157.6145 C.ar    1  UNL1        0.0162
      9 C         141.7408  142.7993  159.0627 C.ar    1  UNL1        0.0505
     10 C         142.2689  141.5942  159.7830 C.ar    1  UNL1        0.0173
     11 C         142.4187  140.2913  159.0550 C.ar    1  UNL1        0.0326
     12 N         142.8684  136.3825  156.8711 N.pl3   1  UNL1       -0.2781
     13 C         142.8504  136.3548  155.3715 C.3     1  UNL1        0.0953
     14 C         143.0003  135.0519  154.6436 C.3     1  UNL1        0.0414
     15 C         143.1682  133.7766  155.4153 C.3     1  UNL1        0.0787
     16 C         143.1862  133.8043  156.9149 C.3     1  UNL1        0.0414
     17 C         143.0363  135.1073  157.6428 C.3     1  UNL1        0.0953
     18 N         143.3181  132.4737  154.6874 N.am    1  UNL1       -0.2810
     19 C         142.5037  132.0219  153.5115 C.3     1  UNL1        0.0938
     20 C         142.9909  130.6628  153.1048 C.3     1  UNL1        0.0311
     21 C         144.1065  130.2745  154.0295 C.3     1  UNL1        0.0870
     22 C         144.3086  131.3937  155.0075 C.2     1  UNL1        0.2256
     23 O         145.3232  131.4270  156.1118 O.2     1  UNL1       -0.2749
     24 N         141.5909  144.1023  159.7907 N.am    1  UNL1       -0.2809
     25 C         140.2615  144.4910  160.3666 C.2     1  UNL1        0.2707
     26 O         139.0821  143.5768  160.2146 O.2     1  UNL1       -0.2707
     27 H         142.3650  144.7023  159.8904 H       1  UNL1        0.1550
     28 C         140.1116  145.7940  161.0946 C.3     1  UNL1        0.2897
     29 O         140.2876  145.8459  162.5833 O.3     1  UNL1       -0.4656
     30 C         141.2469  144.9110  163.2581 C.ar    1  UNL1        0.1395
     31 C         142.7239  145.1561  163.1652 C.ar    1  UNL1        0.0400
     32 C         143.6832  144.2211  163.8400 C.ar    1  UNL1        0.0403
     33 C         143.1657  143.0410  164.6079 C.ar    1  UNL1        0.1470
     34 C         141.6888  142.7959  164.7009 C.ar    1  UNL1        0.0403
     35 C         140.7294  143.7309  164.0260 C.ar    1  UNL1        0.0400
     36 O         144.1250  142.1061  165.2828 O.3     1  UNL1       -0.4045
     37 C         144.7799  141.0082  164.4979 C.3     1  UNL1        0.5753
     38 F         145.4347  139.9104  163.7131 F       1  UNL1       -0.1328
     39 F         143.6144  140.1084  164.7841 F       1  UNL1       -0.1328
     40 F         145.9453  141.9080  164.2117 F       1  UNL1       -0.1328
@<TRIPOS>BOND
     1     1     2    1
     2     2     3   ar
     3     3     4   ar
     4     4    12    1
     5    12    13    1
     6    13    14    1
     7    14    15    1
     8    15    18    1
     9    18    19    1
    10    19    20    1
    11    20    21    1
    12    21    22    1
    13    22    23    2
    14    15    16    1
    15    16    17    1
    16     4     5   ar
    17     5     6   ar
    18     6     7   ar
    19     7     8   ar
    20     8     9   ar
    21     9    24    1
    22    24    25   am
    23    25    26    2
    24    25    28    1
    25    28    29    1
    26    29    30    1
    27    30    31   ar
    28    31    32   ar
    29    32    33   ar
    30    33    36    1
    31    36    37    1
    32    37    38    1
    33    37    39    1
    34    37    40    1
    35    33    34   ar
    36    34    35   ar
    37     9    10   ar
    38    10    11   ar
    39    11     2   ar
    40    17    12    1
    41    11     6   ar
    42    22    18   am
    43    35    30   ar
    44    24    27    1
@<TRIPOS>MOLECULE
*****
 40 44 0 0 0
SMALL
GASTEIGER

@<TRIPOS>ATOM
      1 C         143.9877  140.5587  156.2589 C.3     1  UNL1        0.0522
      2 C         143.5128  139.4492  157.1496 C.ar    1  UNL1        0.0637
      3 N         143.3390  138.0657  156.5966 N.ar    1  UNL1       -0.2180
      4 C         142.8641  136.9561  157.4873 C.ar    1  UNL1        0.2198
      5 N         142.5630  137.2300  158.9309 N.ar    1  UNL1       -0.2136
      6 C         142.7367  138.6135  159.4840 C.ar    1  UNL1        0.0854
      7 C         142.4356  138.8874  160.9277 C.ar    1  UNL1        0.0205
      8 C         142.6093  140.2708  161.4807 C.ar    1  UNL1        0.0162
      9 C         143.0843  141.3804  160.5900 C.ar    1  UNL1        0.0505
     10 C         143.3854  141.1065  159.1463 C.ar    1  UNL1        0.0173
     11 C         143.2117  139.7231  158.5933 C.ar    1  UNL1        0.0326
     12 N         142.6903  135.5726  156.9342 N.pl3   1  UNL1       -0.2781
     13 C         143.3631  134.4089  157.5998 C.3     1  UNL1        0.0953
     14 C         143.1893  133.0255  157.0467 C.3     1  UNL1        0.0414
     15 C         142.3428  132.8058  155.8280 C.3     1  UNL1        0.0787
     16 C         141.6700  133.9696  155.1624 C.3     1  UNL1        0.0414
     17 C         141.8438  135.3530  155.7155 C.3     1  UNL1        0.0953
     18 N         142.1690  131.4223  155.2750 N.am    1  UNL1       -0.2810
     19 C         140.8639  130.7679  154.9308 C.3     1  UNL1        0.0938
     20 C         141.1580  129.3915  154.4121 C.3     1  UNL1        0.0311
     21 C         142.6450  129.1953  154.4357 C.3     1  UNL1        0.0870
     22 C         143.2698  130.4504  154.9690 C.2     1  UNL1        0.2256
     23 O         144.7376  130.6913  155.1623 O.2     1  UNL1       -0.2749
     24 N         143.2580  142.7639  161.1431 N.am    1  UNL1       -0.2809
     25 C         144.3924  143.0607  162.0785 C.2     1  UNL1        0.2707
     26 O         145.3531  141.9740  162.4609 O.2     1  UNL1       -0.2707
     27 H         142.6275  143.4771  160.8921 H       1  UNL1        0.1550
     28 C         144.5662  144.4442  162.6315 C.3     1  UNL1        0.2897
     29 O         143.8473  144.8466  163.8850 O.3     1  UNL1       -0.4656
     30 C         142.4227  144.4287  164.0995 C.ar    1  UNL1        0.1395
     31 C         142.1158  143.1753  164.8642 C.ar    1  UNL1        0.0400
     32 C         140.6913  142.7574  165.0787 C.ar    1  UNL1        0.0403
     33 C         139.5736  143.5930  164.5286 C.ar    1  UNL1        0.1470
     34 C         139.8805  144.8463  163.7639 C.ar    1  UNL1        0.0403
     35 C         141.3051  145.2643  163.5493 C.ar    1  UNL1        0.0400
     36 O         138.1491  143.1751  164.7431 O.3     1  UNL1       -0.4045
     37 C         137.5504  142.0898  163.8982 C.3     1  UNL1        0.5753
     38 F         136.9518  141.0045  163.0533 F       1  UNL1       -0.1328
     39 F         137.8571  141.0862  164.9700 F       1  UNL1       -0.1328
     40 F         137.2437  143.0934  162.8264 F       1  UNL1       -0.1328
@<TRIPOS>BOND
     1     1     2    1
     2     2     3   ar
     3     3     4   ar
     4     4    12    1
     5    12    13    1
     6    13    14    1
     7    14    15    1
     8    15    18    1
     9    18    19    1
    10    19    20    1
    11    20    21    1
    12    21    22    1
    13    22    23    2
    14    15    16    1
    15    16    17    1
    16     4     5   ar
    17     5     6   ar
    18     6     7   ar
    19     7     8   ar
    20     8     9   ar
    21     9    24    1
    22    24    25   am
    23    25    26    2
    24    25    28    1
    25    28    29    1
    26    29    30    1
    27    30    31   ar
    28    31    32   ar
    29    32    33   ar
    30    33    36    1
    31    36    37    1
    32    37    38    1
    33    37    39    1
    34    37    40    1
    35    33    34   ar
    36    34    35   ar
    37     9    10   ar
    38    10    11   ar
    39    11     2   ar
    40    17    12    1
    41    11     6   ar
    42    22    18   am
    43    35    30   ar
    44    24    27    1
@<TRIPOS>MOLECULE
*****
 40 44 0 0 0
SMALL
GASTEIGER

@<TRIPOS>ATOM
      1 C         139.6476  146.2582  161.0459 C.3     1  UNL1        0.0522
      2 C         140.5333  145.1175  161.4513 C.ar    1  UNL1        0.0637
      3 N         140.4509  144.5615  162.8419 N.ar    1  UNL1       -0.2180
      4 C         141.3365  143.4207  163.2473 C.ar    1  UNL1        0.2198
      5 N         142.3045  142.8359  162.2620 N.ar    1  UNL1       -0.2136
      6 C         142.3870  143.3919  160.8712 C.ar    1  UNL1        0.0854
      7 C         143.3550  142.8071  159.8859 C.ar    1  UNL1        0.0205
      8 C         143.4374  143.3631  158.4952 C.ar    1  UNL1        0.0162
      9 C         142.5518  144.5039  158.0898 C.ar    1  UNL1        0.0505
     10 C         141.5837  145.0887  159.0752 C.ar    1  UNL1        0.0173
     11 C         141.5013  144.5327  160.4658 C.ar    1  UNL1        0.0326
     12 N         141.2541  142.8647  164.6381 N.pl3   1  UNL1       -0.2781
     13 C         139.9432  142.3661  165.1700 C.3     1  UNL1        0.0953
     14 C         139.8609  141.8101  166.5607 C.3     1  UNL1        0.0414
     15 C         141.0893  141.7529  167.4195 C.3     1  UNL1        0.0787
     16 C         142.4002  142.2515  166.8876 C.3     1  UNL1        0.0414
     17 C         142.4826  142.8075  165.4969 C.3     1  UNL1        0.0953
     18 N         141.0069  141.1969  168.8102 N.am    1  UNL1       -0.2810
     19 C         141.9031  141.5565  169.9581 C.3     1  UNL1        0.0938
     20 C         141.4640  140.7656  171.1546 C.3     1  UNL1        0.0311
     21 C         140.2963  139.9171  170.7462 C.3     1  UNL1        0.0870
     22 C         140.0138  140.1837  169.2973 C.2     1  UNL1        0.2256
     23 O         138.9288  139.5486  168.4792 O.2     1  UNL1       -0.2749
     24 N         142.6342  145.0599  156.6991 N.am    1  UNL1       -0.2809
     25 C         142.3067  144.1889  155.5226 C.2     1  UNL1        0.2707
     26 O         141.8969  142.7620  155.7367 O.2     1  UNL1       -0.2707
     27 H         142.9032  145.9964  156.5585 H       1  UNL1        0.1550
     28 C         142.3892  144.7449  154.1318 C.3     1  UNL1        0.2897
     29 O         141.1498  145.2408  153.4476 O.3     1  UNL1       -0.4656
     30 C         140.4053  146.4175  154.0051 C.ar    1  UNL1        0.1395
     31 C         140.5382  147.7642  153.3579 C.ar    1  UNL1        0.0400
     32 C         139.7936  148.9410  153.9153 C.ar    1  UNL1        0.0403
     33 C         138.9161  148.7711  155.1200 C.ar    1  UNL1        0.1470
     34 C         138.7831  147.4245  155.7671 C.ar    1  UNL1        0.0403
     35 C         139.5277  146.2476  155.2097 C.ar    1  UNL1        0.0400
     36 O         138.1715  149.9479  155.6774 O.3     1  UNL1       -0.4045
     37 C         138.5111  150.4729  157.0409 C.3     1  UNL1        0.5753
     38 F         138.8506  150.9978  158.4044 F       1  UNL1       -0.1328
     39 F         139.5325  151.3885  156.4341 F       1  UNL1       -0.1328
     40 F         137.4896  149.5573  157.6478 F       1  UNL1       -0.1328
@<TRIPOS>BOND
     1     1     2    1
     2     2     3   ar
     3     3     4   ar
     4     4    12    1
     5    12    13    1
     6    13    14    1
     7    14    15    1
     8    15    18    1
     9    18    19    1
    10    19    20    1
    11    20    21    1
    12    21    22    1
    13    22    23    2
    14    15    16    1
    15    16    17    1
    16     4     5   ar
    17     5     6   ar
    18     6     7   ar
    19     7     8   ar
    20     8     9   ar
    21     9    24    1
    22    24    25   am
    23    25    26    2
    24    25    28    1
    25    28    29    1
    26    29    30    1
    27    30    31   ar
    28    31    32   ar
    29    32    33   ar
    30    33    36    1
    31    36    37    1
    32    37    38    1
    33    37    39    1
    34    37    40    1
    35    33    34   ar
    36    34    35   ar
    37     9    10   ar
    38    10    11   ar
    39    11     2   ar
    40    17    12    1
    41    11     6   ar
    42    22    18   am
    43    35    30   ar
    44    24    27    1
@<TRIPOS>MOLECULE
*****
 40 44 0 0 0
SMALL
GASTEIGER

@<TRIPOS>ATOM
      1 C         142.9509  138.9636  161.7425 C.3     1  UNL1        0.0522
      2 C         142.7310  138.9303  160.2590 C.ar    1  UNL1        0.0637
      3 N         142.9228  137.6503  159.5010 N.ar    1  UNL1       -0.2180
      4 C         142.7030  137.6169  158.0176 C.ar    1  UNL1        0.2198
      5 N         142.2914  138.8636  157.2922 N.ar    1  UNL1       -0.2136
      6 C         142.0995  140.1438  158.0502 C.ar    1  UNL1        0.0854
      7 C         141.6878  141.3904  157.3248 C.ar    1  UNL1        0.0205
      8 C         141.4960  142.6705  158.0829 C.ar    1  UNL1        0.0162
      9 C         141.7159  142.7038  159.5663 C.ar    1  UNL1        0.0505
     10 C         142.1275  141.4571  160.2917 C.ar    1  UNL1        0.0173
     11 C         142.3193  140.1771  159.5336 C.ar    1  UNL1        0.0326
     12 N         142.8949  136.3368  157.2595 N.pl3   1  UNL1       -0.2781
     13 C         143.2724  135.0821  157.9897 C.3     1  UNL1        0.0953
     14 C         143.4643  133.8021  157.2317 C.3     1  UNL1        0.0414
     15 C         143.2785  133.7767  155.7435 C.3     1  UNL1        0.0787
     16 C         142.9009  135.0314  155.0133 C.3     1  UNL1        0.0414
     17 C         142.7091  136.3114  155.7713 C.3     1  UNL1        0.0953
     18 N         143.4703  132.4966  154.9854 N.am    1  UNL1       -0.2810
     19 C         142.7856  132.1188  153.7054 C.3     1  UNL1        0.0938
     20 C         143.2726  130.7583  153.3032 C.3     1  UNL1        0.0311
     21 C         144.2584  130.2952  154.3347 C.3     1  UNL1        0.0870
     22 C         144.3806  131.3696  155.3743 C.2     1  UNL1        0.2256
     23 O         145.2588  131.3247  156.5895 O.2     1  UNL1       -0.2749
     24 N         141.5240  143.9840  160.3243 N.am    1  UNL1       -0.2809
     25 C         140.1438  144.4293  160.7070 C.2     1  UNL1        0.2707
     26 O         138.9553  143.5946  160.3317 O.2     1  UNL1       -0.2707
     27 H         142.3040  144.5318  160.5706 H       1  UNL1        0.1550
     28 C         139.9519  145.7095  161.4651 C.3     1  UNL1        0.2897
     29 O         140.7222  145.9557  162.7284 O.3     1  UNL1       -0.4656
     30 C         140.7930  144.8915  163.7830 C.ar    1  UNL1        0.1395
     31 C         142.0584  144.1094  163.9757 C.ar    1  UNL1        0.0400
     32 C         142.1292  143.0452  165.0304 C.ar    1  UNL1        0.0403
     33 C         140.9346  142.7630  165.8925 C.ar    1  UNL1        0.1470
     34 C         139.6692  143.5451  165.6999 C.ar    1  UNL1        0.0403
     35 C         139.5984  144.6093  164.6452 C.ar    1  UNL1        0.0400
     36 O         141.0054  141.6988  166.9472 O.3     1  UNL1       -0.4045
     37 C         140.3513  141.9183  168.2792 C.3     1  UNL1        0.5753
     38 F         139.6974  142.1377  169.6111 F       1  UNL1       -0.1328
     39 F         139.4037  140.7896  167.9999 F       1  UNL1       -0.1328
     40 F         141.2990  143.0469  168.5585 F       1  UNL1       -0.1328
@<TRIPOS>BOND
     1     1     2    1
     2     2     3   ar
     3     3     4   ar
     4     4    12    1
     5    12    13    1
     6    13    14    1
     7    14    15    1
     8    15    18    1
     9    18    19    1
    10    19    20    1
    11    20    21    1
    12    21    22    1
    13    22    23    2
    14    15    16    1
    15    16    17    1
    16     4     5   ar
    17     5     6   ar
    18     6     7   ar
    19     7     8   ar
    20     8     9   ar
    21     9    24    1
    22    24    25   am
    23    25    26    2
    24    25    28    1
    25    28    29    1
    26    29    30    1
    27    30    31   ar
    28    31    32   ar
    29    32    33   ar
    30    33    36    1
    31    36    37    1
    32    37    38    1
    33    37    39    1
    34    37    40    1
    35    33    34   ar
    36    34    35   ar
    37     9    10   ar
    38    10    11   ar
    39    11     2   ar
    40    17    12    1
    41    11     6   ar
    42    22    18   am
    43    35    30   ar
    44    24    27    1
