@<TRIPOS>MOLECULE
*****
 23 25 0 0 0
SMALL
GASTEIGER

@<TRIPOS>ATOM
      1 C         140.5060  141.9508  168.4846 C.2     1  UNL1        0.0275
      2 C         139.6339  140.7349  168.5894 C.2     1  UNL1        0.0752
      3 C         139.0541  140.6981  169.9724 C.2     1  UNL1        0.3413
      4 O         138.1238  139.6519  170.5109 O.2     1  UNL1       -0.2449
      5 O         139.5679  141.8913  170.7222 O.3     1  UNL1       -0.4404
      6 C         140.4653  142.6655  169.8027 C.3     1  UNL1        0.2356
      7 C         142.8357  143.2297  164.8532 C.ar    1  UNL1        0.1562
      8 C         141.3504  143.4331  164.9013 C.ar    1  UNL1        0.0493
      9 C         140.5738  143.0068  166.1118 C.ar    1  UNL1        0.0042
     10 C         141.2826  142.3771  167.2741 C.ar    1  UNL1       -0.0000
     11 C         142.7679  142.1736  167.2259 C.ar    1  UNL1        0.0042
     12 C         143.5445  142.5999  166.0155 C.ar    1  UNL1        0.0493
     13 C         145.1857  141.9686  162.4481 C.3     1  UNL1        0.2067
     14 N         144.2129  142.2849  163.5451 N.2     1  UNL1       -0.1212
     15 S         143.6123  143.6560  163.6427 S.3     1  UNL1       -0.0180
     16 C         144.3889  144.0823  162.4322 C.3     1  UNL1        0.2959
     17 O         143.0117  145.0270  163.7403 O.co2   1  UNL1       -0.6273
     18 C         139.3852  139.7318  167.5022 C.ar    1  UNL1        0.0060
     19 C         140.4504  139.4488  166.4848 C.ar    1  UNL1        0.0002
     20 C         140.2016  138.4457  165.3976 C.ar    1  UNL1        0.0000
     21 C         138.8877  137.7256  165.3278 C.ar    1  UNL1        0.0000
     22 C         137.8224  138.0086  166.3452 C.ar    1  UNL1        0.0000
     23 C         138.0711  139.0117  167.4324 C.ar    1  UNL1        0.0002
@<TRIPOS>UNITY_ATOM_ATTR
15 1
charge 1
17 1
charge -1
@<TRIPOS>BOND
     1    13    14    1
     2    14    15    2
     3    15    16    1
     4    15    17    1
     5    15     7    1
     6     7     8   ar
     7     8     9   ar
     8     9    10   ar
     9    10     1    1
    10     1     2    2
    11     2    18    1
    12    18    19   ar
    13    19    20   ar
    14    20    21   ar
    15    21    22   ar
    16    22    23   ar
    17     2     3    1
    18     3     4    2
    19     3     5    1
    20     5     6    1
    21    10    11   ar
    22    11    12   ar
    23    12     7   ar
    24     6     1    1
    25    23    18   ar
@<TRIPOS>MOLECULE
*****
 23 25 0 0 0
SMALL
GASTEIGER

@<TRIPOS>ATOM
      1 C         139.2022  139.3752  164.3850 C.2     1  UNL1        0.0275
      2 C         138.6801  140.5041  163.5467 C.2     1  UNL1        0.0752
      3 C         137.9770  139.9140  162.3603 C.2     1  UNL1        0.3413
      4 O         137.3045  140.6826  161.2617 O.2     1  UNL1       -0.2449
      5 O         138.0646  138.4202  162.4655 O.3     1  UNL1       -0.4404
      6 C         138.8218  138.0873  163.7168 C.3     1  UNL1        0.2356
      7 C         141.5052  139.7808  168.2297 C.ar    1  UNL1        0.1562
      8 C         140.0208  139.9964  168.2183 C.ar    1  UNL1        0.0493
      9 C         139.2532  139.8612  166.9367 C.ar    1  UNL1        0.0042
     10 C         139.9699  139.5104  165.6666 C.ar    1  UNL1       -0.0000
     11 C         141.4542  139.2948  165.6780 C.ar    1  UNL1        0.0042
     12 C         142.2219  139.4300  166.9596 C.ar    1  UNL1        0.0493
     13 C         141.7355  141.8605  171.1484 C.3     1  UNL1        0.2067
     14 N         141.4714  141.1343  169.8628 N.2     1  UNL1       -0.1212
     15 S         142.2729  139.9160  169.5113 S.3     1  UNL1       -0.0180
     16 C         143.0405  140.0512  170.7929 C.3     1  UNL1        0.2959
     17 O         143.0743  138.6978  169.1597 O.co2   1  UNL1       -0.6273
     18 C         138.8340  141.9666  163.8427 C.ar    1  UNL1        0.0060
     19 C         140.1280  142.6613  163.5384 C.ar    1  UNL1        0.0002
     20 C         140.2819  144.1237  163.8344 C.ar    1  UNL1        0.0000
     21 C         139.1417  144.8915  164.4348 C.ar    1  UNL1        0.0000
     22 C         137.8476  144.1968  164.7392 C.ar    1  UNL1        0.0000
     23 C         137.6937  142.7343  164.4432 C.ar    1  UNL1        0.0002
@<TRIPOS>UNITY_ATOM_ATTR
15 1
charge 1
17 1
charge -1
@<TRIPOS>BOND
     1    13    14    1
     2    14    15    2
     3    15    16    1
     4    15    17    1
     5    15     7    1
     6     7     8   ar
     7     8     9   ar
     8     9    10   ar
     9    10     1    1
    10     1     2    2
    11     2    18    1
    12    18    19   ar
    13    19    20   ar
    14    20    21   ar
    15    21    22   ar
    16    22    23   ar
    17     2     3    1
    18     3     4    2
    19     3     5    1
    20     5     6    1
    21    10    11   ar
    22    11    12   ar
    23    12     7   ar
    24     6     1    1
    25    23    18   ar
@<TRIPOS>MOLECULE
*****
 23 25 0 0 0
SMALL
GASTEIGER

@<TRIPOS>ATOM
      1 C         140.3320  142.4763  167.5254 C.2     1  UNL1        0.0275
      2 C         140.1489  141.0243  167.8543 C.2     1  UNL1        0.0752
      3 C         140.1543  140.8831  169.3476 C.2     1  UNL1        0.3413
      4 O         140.0002  139.6020  170.1126 O.2     1  UNL1       -0.2449
      5 O         140.3407  142.2478  169.9416 O.3     1  UNL1       -0.4404
      6 C         140.4505  143.2324  168.8154 C.3     1  UNL1        0.2356
      7 C         140.4969  144.2520  163.3938 C.ar    1  UNL1        0.1562
      8 C         141.6644  143.4726  163.9223 C.ar    1  UNL1        0.0493
      9 C         141.6094  142.8807  165.2995 C.ar    1  UNL1        0.0042
     10 C         140.3870  143.0682  166.1482 C.ar    1  UNL1       -0.0000
     11 C         139.2194  143.8476  165.6197 C.ar    1  UNL1        0.0042
     12 C         139.2744  144.4395  164.2425 C.ar    1  UNL1        0.0493
     13 C         142.1236  143.8148  160.2222 C.3     1  UNL1        0.2067
     14 N         141.5679  143.8161  161.6154 N.2     1  UNL1       -0.1212
     15 S         140.5518  144.8439  162.0166 S.3     1  UNL1       -0.0180
     16 C         140.6067  145.4359  160.6395 C.3     1  UNL1        0.2959
     17 O         139.5357  145.8718  162.4179 O.co2   1  UNL1       -0.6273
     18 C         139.9886  139.9093  166.8638 C.ar    1  UNL1        0.0060
     19 C         138.6363  139.3053  166.6268 C.ar    1  UNL1        0.0002
     20 C         138.4760  138.1903  165.6363 C.ar    1  UNL1        0.0000
     21 C         139.6681  137.6792  164.8829 C.ar    1  UNL1        0.0000
     22 C         141.0205  138.2832  165.1199 C.ar    1  UNL1        0.0000
     23 C         141.1808  139.3982  166.1103 C.ar    1  UNL1        0.0002
@<TRIPOS>UNITY_ATOM_ATTR
15 1
charge 1
17 1
charge -1
@<TRIPOS>BOND
     1    13    14    1
     2    14    15    2
     3    15    16    1
     4    15    17    1
     5    15     7    1
     6     7     8   ar
     7     8     9   ar
     8     9    10   ar
     9    10     1    1
    10     1     2    2
    11     2    18    1
    12    18    19   ar
    13    19    20   ar
    14    20    21   ar
    15    21    22   ar
    16    22    23   ar
    17     2     3    1
    18     3     4    2
    19     3     5    1
    20     5     6    1
    21    10    11   ar
    22    11    12   ar
    23    12     7   ar
    24     6     1    1
    25    23    18   ar
@<TRIPOS>MOLECULE
*****
 23 25 0 0 0
SMALL
GASTEIGER

@<TRIPOS>ATOM
      1 C         140.4227  142.3665  167.6724 C.2     1  UNL1        0.0275
      2 C         140.0406  140.9615  168.0328 C.2     1  UNL1        0.0752
      3 C         140.0074  140.8594  169.5289 C.2     1  UNL1        0.3413
      4 O         139.6716  139.6310  170.3216 O.2     1  UNL1       -0.2449
      5 O         140.3691  142.2013  170.0932 O.3     1  UNL1       -0.4404
      6 C         140.6258  143.1327  168.9458 C.3     1  UNL1        0.2356
      7 C         140.8798  143.9966  163.5030 C.ar    1  UNL1        0.1562
      8 C         142.0587  143.3901  164.2046 C.ar    1  UNL1        0.0493
      9 C         141.9064  142.8468  165.5944 C.ar    1  UNL1        0.0042
     10 C         140.5751  142.9099  166.2826 C.ar    1  UNL1       -0.0000
     11 C         139.3962  143.5163  165.5810 C.ar    1  UNL1        0.0042
     12 C         139.5486  144.0597  164.1912 C.ar    1  UNL1        0.0493
     13 C         139.5238  146.4973  161.3111 C.3     1  UNL1        0.2067
     14 N         139.9386  145.5312  162.3808 N.2     1  UNL1       -0.1212
     15 S         141.0322  144.5400  162.1132 S.3     1  UNL1       -0.0180
     16 C         141.1846  145.0833  160.7234 C.3     1  UNL1        0.2959
     17 O         142.1258  143.5488  161.8455 O.co2   1  UNL1       -0.6273
     18 C         139.7437  139.8531  167.0667 C.ar    1  UNL1        0.0060
     19 C         140.8011  139.3892  166.1094 C.ar    1  UNL1        0.0002
     20 C         140.5042  138.2808  165.1433 C.ar    1  UNL1        0.0000
     21 C         139.1497  137.6364  165.1344 C.ar    1  UNL1        0.0000
     22 C         138.0922  138.1004  166.0916 C.ar    1  UNL1        0.0000
     23 C         138.3891  139.2087  167.0578 C.ar    1  UNL1        0.0002
@<TRIPOS>UNITY_ATOM_ATTR
15 1
charge 1
17 1
charge -1
@<TRIPOS>BOND
     1    13    14    1
     2    14    15    2
     3    15    16    1
     4    15    17    1
     5    15     7    1
     6     7     8   ar
     7     8     9   ar
     8     9    10   ar
     9    10     1    1
    10     1     2    2
    11     2    18    1
    12    18    19   ar
    13    19    20   ar
    14    20    21   ar
    15    21    22   ar
    16    22    23   ar
    17     2     3    1
    18     3     4    2
    19     3     5    1
    20     5     6    1
    21    10    11   ar
    22    11    12   ar
    23    12     7   ar
    24     6     1    1
    25    23    18   ar
@<TRIPOS>MOLECULE
*****
 23 25 0 0 0
SMALL
GASTEIGER

@<TRIPOS>ATOM
      1 C         139.6743  139.8166  166.9046 C.2     1  UNL1        0.0275
      2 C         139.6956  140.2503  168.3404 C.2     1  UNL1        0.0752
      3 C         138.5018  139.6514  169.0233 C.2     1  UNL1        0.3413
      4 O         138.1321  139.8257  170.4665 O.2     1  UNL1       -0.2449
      5 O         137.7427  138.8476  168.0095 O.3     1  UNL1       -0.4404
      6 C         138.4674  138.9498  166.7001 C.3     1  UNL1        0.2356
      7 C         142.6999  140.9223  163.7624 C.ar    1  UNL1        0.1562
      8 C         141.4333  141.7146  163.8957 C.ar    1  UNL1        0.0493
      9 C         140.4247  141.3461  164.9431 C.ar    1  UNL1        0.0042
     10 C         140.6828  140.1852  165.8572 C.ar    1  UNL1       -0.0000
     11 C         141.9494  139.3928  165.7239 C.ar    1  UNL1        0.0042
     12 C         142.9580  139.7614  164.6765 C.ar    1  UNL1        0.0493
     13 C         144.3634  143.7800  162.3612 C.3     1  UNL1        0.2067
     14 N         143.5628  142.7375  163.0838 N.2     1  UNL1       -0.1212
     15 S         143.7084  141.2908  162.7150 S.3     1  UNL1       -0.0180
     16 C         144.7169  141.6594  161.6676 C.3     1  UNL1        0.2959
     17 O         143.8540  139.8442  162.3462 O.co2   1  UNL1       -0.6273
     18 C         140.7292  141.1286  168.9809 C.ar    1  UNL1        0.0060
     19 C         140.3975  142.5510  169.3220 C.ar    1  UNL1        0.0002
     20 C         141.4311  143.4294  169.9625 C.ar    1  UNL1        0.0000
     21 C         142.7965  142.8852  170.2619 C.ar    1  UNL1        0.0000
     22 C         143.1282  141.4626  169.9208 C.ar    1  UNL1        0.0000
     23 C         142.0946  140.5843  169.2803 C.ar    1  UNL1        0.0002
@<TRIPOS>UNITY_ATOM_ATTR
15 1
charge 1
17 1
charge -1
@<TRIPOS>BOND
     1    13    14    1
     2    14    15    2
     3    15    16    1
     4    15    17    1
     5    15     7    1
     6     7     8   ar
     7     8     9   ar
     8     9    10   ar
     9    10     1    1
    10     1     2    2
    11     2    18    1
    12    18    19   ar
    13    19    20   ar
    14    20    21   ar
    15    21    22   ar
    16    22    23   ar
    17     2     3    1
    18     3     4    2
    19     3     5    1
    20     5     6    1
    21    10    11   ar
    22    11    12   ar
    23    12     7   ar
    24     6     1    1
    25    23    18   ar
@<TRIPOS>MOLECULE
*****
 23 25 0 0 0
SMALL
GASTEIGER

@<TRIPOS>ATOM
      1 C         141.6149  138.4072  164.5615 C.2     1  UNL1        0.0275
      2 C         142.4076  138.8886  163.3826 C.2     1  UNL1        0.0752
      3 C         142.1414  137.9603  162.2348 C.2     1  UNL1        0.3413
      4 O         142.7292  138.0682  160.8590 O.2     1  UNL1       -0.2449
      5 O         141.1842  136.9052  162.7043 O.3     1  UNL1       -0.4404
      6 C         140.8588  137.1814  164.1423 C.3     1  UNL1        0.2356
      7 C         141.5216  140.3068  168.6399 C.ar    1  UNL1        0.1562
      8 C         140.3248  140.4020  167.7406 C.ar    1  UNL1        0.0493
      9 C         140.3560  139.7688  166.3811 C.ar    1  UNL1        0.0042
     10 C         141.5838  139.0404  165.9210 C.ar    1  UNL1       -0.0000
     11 C         142.7805  138.9452  166.8203 C.ar    1  UNL1        0.0042
     12 C         142.7494  139.5784  168.1797 C.ar    1  UNL1        0.0493
     13 C         139.7948  142.8416  170.5081 C.3     1  UNL1        0.2067
     14 N         140.3780  141.8421  169.5536 N.2     1  UNL1       -0.1212
     15 S         141.4904  140.9400  169.9993 S.3     1  UNL1       -0.0180
     16 C         141.4593  141.5732  171.3587 C.3     1  UNL1        0.2959
     17 O         142.6029  140.0379  170.4450 O.co2   1  UNL1       -0.6273
     18 C         143.3083  140.0877  163.3561 C.ar    1  UNL1        0.0060
     19 C         144.7247  139.9726  163.8360 C.ar    1  UNL1        0.0002
     20 C         145.6255  141.1718  163.8095 C.ar    1  UNL1        0.0000
     21 C         145.1098  142.4861  163.3030 C.ar    1  UNL1        0.0000
     22 C         143.6934  142.6013  162.8231 C.ar    1  UNL1        0.0000
     23 C         142.7926  141.4021  162.8496 C.ar    1  UNL1        0.0002
@<TRIPOS>UNITY_ATOM_ATTR
15 1
charge 1
17 1
charge -1
@<TRIPOS>BOND
     1    13    14    1
     2    14    15    2
     3    15    16    1
     4    15    17    1
     5    15     7    1
     6     7     8   ar
     7     8     9   ar
     8     9    10   ar
     9    10     1    1
    10     1     2    2
    11     2    18    1
    12    18    19   ar
    13    19    20   ar
    14    20    21   ar
    15    21    22   ar
    16    22    23   ar
    17     2     3    1
    18     3     4    2
    19     3     5    1
    20     5     6    1
    21    10    11   ar
    22    11    12   ar
    23    12     7   ar
    24     6     1    1
    25    23    18   ar
@<TRIPOS>MOLECULE
*****
 23 25 0 0 0
SMALL
GASTEIGER

@<TRIPOS>ATOM
      1 C         140.2160  139.8920  166.7974 C.2     1  UNL1        0.0275
      2 C         141.6674  139.9904  167.1632 C.2     1  UNL1        0.0752
      3 C         141.7749  139.9165  168.6575 C.2     1  UNL1        0.3413
      4 O         143.0444  139.9763  169.4542 O.2     1  UNL1       -0.2449
      5 O         140.3899  139.7723  169.2153 O.3     1  UNL1       -0.4404
      6 C         139.4265  139.7572  168.0657 C.3     1  UNL1        0.2356
      7 C         138.5270  139.9846  162.6274 C.ar    1  UNL1        0.1562
      8 C         138.7962  138.6705  163.2986 C.ar    1  UNL1        0.0493
      9 C         139.3592  138.6396  164.6886 C.ar    1  UNL1        0.0042
     10 C         139.6530  139.9228  165.4074 C.ar    1  UNL1       -0.0000
     11 C         139.3838  141.2370  164.7363 C.ar    1  UNL1        0.0042
     12 C         138.8208  141.2679  163.3463 C.ar    1  UNL1        0.0493
     13 C         138.4241  142.0546  159.6946 C.3     1  UNL1        0.2067
     14 N         138.5958  141.3570  161.0114 N.2     1  UNL1       -0.1212
     15 S         137.9640  140.0155  161.2375 S.3     1  UNL1       -0.0180
     16 C         137.4010  140.0464  159.8475 C.3     1  UNL1        0.2959
     17 O         137.3322  138.6740  161.4635 O.co2   1  UNL1       -0.6273
     18 C         142.8106  140.1371  166.2032 C.ar    1  UNL1        0.0060
     19 C         143.5682  138.9251  165.7484 C.ar    1  UNL1        0.0002
     20 C         144.7114  139.0718  164.7884 C.ar    1  UNL1        0.0000
     21 C         145.0970  140.4305  164.2833 C.ar    1  UNL1        0.0000
     22 C         144.3394  141.6426  164.7381 C.ar    1  UNL1        0.0000
     23 C         143.1962  141.4959  165.6981 C.ar    1  UNL1        0.0002
@<TRIPOS>UNITY_ATOM_ATTR
15 1
charge 1
17 1
charge -1
@<TRIPOS>BOND
     1    13    14    1
     2    14    15    2
     3    15    16    1
     4    15    17    1
     5    15     7    1
     6     7     8   ar
     7     8     9   ar
     8     9    10   ar
     9    10     1    1
    10     1     2    2
    11     2    18    1
    12    18    19   ar
    13    19    20   ar
    14    20    21   ar
    15    21    22   ar
    16    22    23   ar
    17     2     3    1
    18     3     4    2
    19     3     5    1
    20     5     6    1
    21    10    11   ar
    22    11    12   ar
    23    12     7   ar
    24     6     1    1
    25    23    18   ar
@<TRIPOS>MOLECULE
*****
 23 25 0 0 0
SMALL
GASTEIGER

@<TRIPOS>ATOM
      1 C         143.9306  140.8660  164.3659 C.2     1  UNL1        0.0275
      2 C         143.3678  140.2109  163.1394 C.2     1  UNL1        0.0752
      3 C         144.3106  140.4694  162.0017 C.2     1  UNL1        0.3413
      4 O         144.1381  139.9962  160.5888 O.2     1  UNL1       -0.2449
      5 O         145.4561  141.2843  162.5250 O.3     1  UNL1       -0.4404
      6 C         145.2213  141.5294  163.9861 C.3     1  UNL1        0.2356
      7 C         142.0733  140.8448  168.4646 C.ar    1  UNL1        0.1562
      8 C         142.5069  139.5562  167.8311 C.ar    1  UNL1        0.0493
      9 C         143.1260  139.5633  166.4648 C.ar    1  UNL1        0.0042
     10 C         143.3115  140.8589  165.7321 C.ar    1  UNL1       -0.0000
     11 C         142.8779  142.1475  166.3657 C.ar    1  UNL1        0.0042
     12 C         142.2588  142.1404  167.7320 C.ar    1  UNL1        0.0493
     13 C         139.9060  142.7905  170.5656 C.3     1  UNL1        0.2067
     14 N         140.7795  142.1436  169.5319 N.2     1  UNL1       -0.1212
     15 S         141.4542  140.8377  169.8309 S.3     1  UNL1       -0.0180
     16 C         140.8351  140.8307  171.1972 C.3     1  UNL1        0.2959
     17 O         142.1289  139.5318  170.1299 O.co2   1  UNL1       -0.6273
     18 C         142.0871  139.4338  163.0639 C.ar    1  UNL1        0.0060
     19 C         142.0914  137.9547  163.3132 C.ar    1  UNL1        0.0002
     20 C         140.8107  137.1775  163.2377 C.ar    1  UNL1        0.0000
     21 C         139.5255  137.8795  162.9129 C.ar    1  UNL1        0.0000
     22 C         139.5210  139.3586  162.6636 C.ar    1  UNL1        0.0000
     23 C         140.8018  140.1358  162.7391 C.ar    1  UNL1        0.0002
@<TRIPOS>UNITY_ATOM_ATTR
15 1
charge 1
17 1
charge -1
@<TRIPOS>BOND
     1    13    14    1
     2    14    15    2
     3    15    16    1
     4    15    17    1
     5    15     7    1
     6     7     8   ar
     7     8     9   ar
     8     9    10   ar
     9    10     1    1
    10     1     2    2
    11     2    18    1
    12    18    19   ar
    13    19    20   ar
    14    20    21   ar
    15    21    22   ar
    16    22    23   ar
    17     2     3    1
    18     3     4    2
    19     3     5    1
    20     5     6    1
    21    10    11   ar
    22    11    12   ar
    23    12     7   ar
    24     6     1    1
    25    23    18   ar
@<TRIPOS>MOLECULE
*****
 23 25 0 0 0
SMALL
GASTEIGER

@<TRIPOS>ATOM
      1 C         139.8255  143.4958  163.9948 C.2     1  UNL1        0.0275
      2 C         139.3405  142.6417  162.8611 C.2     1  UNL1        0.0752
      3 C         138.6900  143.5388  161.8501 C.2     1  UNL1        0.3413
      4 O         138.0661  143.1037  160.5573 O.2     1  UNL1       -0.2449
      5 O         138.7729  144.9474  162.3591 O.3     1  UNL1       -0.4404
      6 C         139.4746  144.9208  163.6845 C.3     1  UNL1        0.2356
      7 C         141.9583  142.0389  167.6798 C.ar    1  UNL1        0.1562
      8 C         142.6189  141.9281  166.3377 C.ar    1  UNL1        0.0493
      9 C         141.9079  142.4137  165.1094 C.ar    1  UNL1        0.0042
     10 C         140.5364  143.0102  165.2231 C.ar    1  UNL1       -0.0000
     11 C         139.8758  143.1210  166.5652 C.ar    1  UNL1        0.0042
     12 C         140.5867  142.6354  167.7935 C.ar    1  UNL1        0.0493
     13 C         141.8784  139.3808  170.0932 C.3     1  UNL1        0.2067
     14 N         141.7315  140.3853  168.9890 N.2     1  UNL1       -0.1212
     15 S         142.6692  141.5533  168.9081 S.3     1  UNL1       -0.0180
     16 C         143.3801  141.0677  170.1364 C.3     1  UNL1        0.2959
     17 O         143.6068  142.7213  168.8272 O.co2   1  UNL1       -0.6273
     18 C         139.4814  141.1519  162.7566 C.ar    1  UNL1        0.0060
     19 C         138.5629  140.2555  163.5328 C.ar    1  UNL1        0.0002
     20 C         138.7037  138.7657  163.4284 C.ar    1  UNL1        0.0000
     21 C         139.7631  138.1725  162.5477 C.ar    1  UNL1        0.0000
     22 C         140.6817  139.0689  161.7714 C.ar    1  UNL1        0.0000
     23 C         140.5408  140.5587  161.8759 C.ar    1  UNL1        0.0002
@<TRIPOS>UNITY_ATOM_ATTR
15 1
charge 1
17 1
charge -1
@<TRIPOS>BOND
     1    13    14    1
     2    14    15    2
     3    15    16    1
     4    15    17    1
     5    15     7    1
     6     7     8   ar
     7     8     9   ar
     8     9    10   ar
     9    10     1    1
    10     1     2    2
    11     2    18    1
    12    18    19   ar
    13    19    20   ar
    14    20    21   ar
    15    21    22   ar
    16    22    23   ar
    17     2     3    1
    18     3     4    2
    19     3     5    1
    20     5     6    1
    21    10    11   ar
    22    11    12   ar
    23    12     7   ar
    24     6     1    1
    25    23    18   ar
