@<TRIPOS>MOLECULE
*****
 40 46 0 0 0
SMALL
GASTEIGER

@<TRIPOS>ATOM
      1 C         137.6864  139.4708  161.7141 C.3     1  UNL1        0.0700
      2 C         137.5774  140.6154  162.6774 C.3     1  UNL1        0.0193
      3 C         138.1417  140.4873  164.0613 C.3     1  UNL1        0.0287
      4 C         138.8150  139.2146  164.4819 C.3     1  UNL1        0.0955
      5 C         138.9240  138.0699  163.5186 C.3     1  UNL1        0.0287
      6 C         138.3597  138.1981  162.1347 C.3     1  UNL1        0.0193
      7 O         138.5210  139.2378  163.7131 O.3     1  UNL1       -0.3571
      8 C         138.0108  139.3536  162.4618 C.3     1  UNL1        0.1562
      9 N         137.1221  139.5988  160.3302 N.3     1  UNL1       -0.2926
     10 H         136.8945  138.6553  160.0165 H       1  UNL1        0.1236
     11 C         137.9389  140.2315  159.2428 C.3     1  UNL1        0.1152
     12 O         141.8367  134.9322  155.0624 O.2     1  UNL1       -0.2707
     13 C         141.8348  136.0756  156.0334 C.2     1  UNL1        0.2718
     14 C         143.1304  136.5958  156.5818 C.3     1  UNL1        0.2898
     15 O         143.1286  137.7392  157.5528 O.3     1  UNL1       -0.4628
     16 C         141.8312  138.3623  157.9753 C.ar    1  UNL1        0.1708
     17 C         141.8293  139.5056  158.9462 C.ar    1  UNL1        0.0411
     18 C         140.5319  140.1287  159.3687 C.ar    1  UNL1        0.0193
     19 C         139.2363  139.6084  158.8203 C.ar    1  UNL1        0.0765
     20 N         139.2382  138.4650  157.8493 N.ar    1  UNL1       -0.2304
     21 C         140.5356  137.8420  157.4268 C.ar    1  UNL1        0.1682
     22 N         140.5374  136.6987  156.4559 N.am    1  UNL1       -0.2639
     23 H         139.6871  136.3572  156.0959 H       1  UNL1        0.1565
     24 C         139.3793  139.0865  165.8658 C.3     1  UNL1        0.0602
     25 C         140.4946  139.9872  166.3073 C.3     1  UNL1        0.1311
     26 O         141.0204  139.7542  164.9220 O.3     1  UNL1       -0.3808
     27 C         141.7197  140.8393  166.4593 C.3     1  UNL1        0.1293
     28 N         141.7179  141.4106  167.8462 N.am    1  UNL1       -0.2549
     29 C         142.6745  142.3206  168.5581 C.2     1  UNL1        0.2298
     30 O         143.9007  142.8196  167.8528 O.2     1  UNL1       -0.2745
     31 C         142.4048  142.7318  169.9751 C.3     1  UNL1        0.0919
     32 C         141.1785  142.2328  170.6804 C.3     1  UNL1        0.0567
     33 C         140.2220  141.3227  169.9686 C.ar    1  UNL1        0.0730
     34 N         138.9357  140.6796  170.4183 N.ar    1  UNL1       -0.2446
     35 C         138.0747  139.7798  169.5822 C.ar    1  UNL1        0.1278
     36 C         138.4746  139.4560  168.1733 C.ar    1  UNL1        0.1586
     37 F         137.6136  138.5562  167.3372 F       1  UNL1       -0.2027
     38 C         139.7356  140.0320  167.6004 C.ar    1  UNL1        0.0473
     39 C         140.4917  140.9116  168.5515 C.ar    1  UNL1        0.0679
     40 H         141.8511  140.2413  164.8053 H       1  UNL1        0.2107
@<TRIPOS>BOND
     1    12    13    2
     2    13    14    1
     3    14    15    1
     4    15    16    1
     5    16    17   ar
     6    17    18   ar
     7    18    19   ar
     8    19    11    1
     9    11     9    1
    10     9     1    1
    11     1     2    1
    12     2     3    1
    13     3     4    1
    14     4    24    1
    15    24    25    1
    16    25    26    1
    17    25    27    1
    18    27    28    1
    19    28    29   am
    20    29    30    2
    21    29    31    1
    22    31    32    1
    23    32    33    1
    24    33    34   ar
    25    34    35   ar
    26    35    36   ar
    27    36    37    1
    28    36    38   ar
    29    38    39   ar
    30     4     5    1
    31     5     6    1
    32     4     7    1
    33     7     8    1
    34    19    20   ar
    35    20    21   ar
    36    21    22    1
    37    22    13   am
    38    21    16   ar
    39     6     1    1
    40     8     1    1
    41    38    25    1
    42    39    28    1
    43    39    33   ar
    44     9    10    1
    45    26    40    1
    46    22    23    1
@<TRIPOS>MOLECULE
*****
 40 46 0 0 0
SMALL
GASTEIGER

@<TRIPOS>ATOM
      1 C         137.7707  139.6812  162.0691 C.3     1  UNL1        0.0700
      2 C         138.4929  138.4098  162.4040 C.3     1  UNL1        0.0193
      3 C         139.1112  138.2331  163.7591 C.3     1  UNL1        0.0287
      4 C         139.0075  139.3279  164.7794 C.3     1  UNL1        0.0955
      5 C         138.2853  140.5992  164.4445 C.3     1  UNL1        0.0287
      6 C         137.6670  140.7759  163.0893 C.3     1  UNL1        0.0193
      7 O         138.6526  139.4706  164.0503 O.3     1  UNL1       -0.3571
      8 C         138.0935  139.6304  162.8250 C.3     1  UNL1        0.1562
      9 N         137.1524  139.8579  160.7140 N.3     1  UNL1       -0.2926
     10 H         136.8072  138.9423  160.4261 H       1  UNL1        0.1236
     11 C         137.9756  140.3872  159.5773 C.3     1  UNL1        0.1152
     12 O         143.9767  144.5495  162.3000 O.2     1  UNL1       -0.2707
     13 C         143.4544  143.3525  161.5619 C.2     1  UNL1        0.2718
     14 C         144.4104  142.3462  160.9934 C.3     1  UNL1        0.2898
     15 O         143.8883  141.1492  160.2553 O.3     1  UNL1       -0.4628
     16 C         142.4101  140.9588  160.0858 C.ar    1  UNL1        0.1708
     17 C         141.8879  139.7619  159.3477 C.ar    1  UNL1        0.0411
     18 C         140.4097  139.5714  159.1783 C.ar    1  UNL1        0.0193
     19 C         139.4538  140.5778  159.7468 C.ar    1  UNL1        0.0765
     20 N         139.9760  141.7747  160.4849 N.ar    1  UNL1       -0.2304
     21 C         141.4542  141.9652  160.6543 C.ar    1  UNL1        0.1682
     22 N         141.9763  143.1621  161.3924 N.am    1  UNL1       -0.2639
     23 H         141.3488  143.8226  161.7655 H       1  UNL1        0.1565
     24 C         139.6258  139.1512  166.1346 C.3     1  UNL1        0.0602
     25 C         140.7448  140.0496  166.5713 C.3     1  UNL1        0.1311
     26 O         141.2937  139.7689  165.2039 O.3     1  UNL1       -0.3808
     27 C         141.9785  140.8894  166.7222 C.3     1  UNL1        0.1293
     28 N         141.9581  141.5013  168.0916 N.am    1  UNL1       -0.2549
     29 C         142.9134  142.4191  168.7951 C.2     1  UNL1        0.2298
     30 O         144.1597  142.8807  168.0997 O.2     1  UNL1       -0.2745
     31 C         142.6223  142.8754  170.1940 C.3     1  UNL1        0.0919
     32 C         141.3760  142.4138  170.8895 C.3     1  UNL1        0.0567
     33 C         140.4207  141.4960  170.1860 C.ar    1  UNL1        0.0730
     34 N         139.1172  140.8836  170.6290 N.ar    1  UNL1       -0.2446
     35 C         138.2600  139.9711  169.8030 C.ar    1  UNL1        0.1278
     36 C         138.6823  139.6006  168.4122 C.ar    1  UNL1        0.1586
     37 F         137.8250  138.6881  167.5861 F       1  UNL1       -0.2027
     38 C         139.9619  140.1425  167.8474 C.ar    1  UNL1        0.0473
     39 C         140.7118  141.0397  168.7870 C.ar    1  UNL1        0.0679
     40 H         142.1332  140.2411  165.0893 H       1  UNL1        0.2107
@<TRIPOS>BOND
     1    12    13    2
     2    13    14    1
     3    14    15    1
     4    15    16    1
     5    16    17   ar
     6    17    18   ar
     7    18    19   ar
     8    19    11    1
     9    11     9    1
    10     9     1    1
    11     1     2    1
    12     2     3    1
    13     3     4    1
    14     4    24    1
    15    24    25    1
    16    25    26    1
    17    25    27    1
    18    27    28    1
    19    28    29   am
    20    29    30    2
    21    29    31    1
    22    31    32    1
    23    32    33    1
    24    33    34   ar
    25    34    35   ar
    26    35    36   ar
    27    36    37    1
    28    36    38   ar
    29    38    39   ar
    30     4     5    1
    31     5     6    1
    32     4     7    1
    33     7     8    1
    34    19    20   ar
    35    20    21   ar
    36    21    22    1
    37    22    13   am
    38    21    16   ar
    39     6     1    1
    40     8     1    1
    41    38    25    1
    42    39    28    1
    43    39    33   ar
    44     9    10    1
    45    26    40    1
    46    22    23    1
@<TRIPOS>MOLECULE
*****
 40 46 0 0 0
SMALL
GASTEIGER

@<TRIPOS>ATOM
      1 C         138.1319  139.6154  161.2113 C.3     1  UNL1        0.0700
      2 C         138.4285  140.7926  162.0923 C.3     1  UNL1        0.0193
      3 C         139.2202  140.6056  163.3526 C.3     1  UNL1        0.0287
      4 C         139.7152  139.2413  163.7319 C.3     1  UNL1        0.0955
      5 C         139.4186  138.0641  162.8509 C.3     1  UNL1        0.0287
      6 C         138.6269  138.2512  161.5906 C.3     1  UNL1        0.0193
      7 O         139.2853  139.2945  163.0317 O.3     1  UNL1       -0.3571
      8 C         138.5695  139.4636  161.8921 C.3     1  UNL1        0.1562
      9 N         137.3402  139.8024  159.9510 N.3     1  UNL1       -0.2926
     10 H         136.9071  138.9036  159.7393 H       1  UNL1        0.1236
     11 C         138.0240  140.2598  158.6968 C.3     1  UNL1        0.1152
     12 O         142.0857  134.5796  155.2342 O.2     1  UNL1       -0.2707
     13 C         142.0484  135.8742  155.9910 C.2     1  UNL1        0.2718
     14 C         143.3277  136.5700  156.3502 C.3     1  UNL1        0.2898
     15 O         143.2906  137.8647  157.1069 O.3     1  UNL1       -0.4628
     16 C         141.9739  138.4634  157.5044 C.ar    1  UNL1        0.1708
     17 C         141.9366  139.7580  158.2611 C.ar    1  UNL1        0.0411
     18 C         140.6200  140.3568  158.6585 C.ar    1  UNL1        0.0193
     19 C         139.3407  139.6609  158.2993 C.ar    1  UNL1        0.0765
     20 N         139.3779  138.3663  157.5426 N.ar    1  UNL1       -0.2304
     21 C         140.6946  137.7676  157.1451 C.ar    1  UNL1        0.1682
     22 N         140.7318  136.4730  156.3884 N.am    1  UNL1       -0.2639
     23 H         139.8921  136.0163  156.1527 H       1  UNL1        0.1565
     24 C         140.5069  139.0543  164.9922 C.3     1  UNL1        0.0602
     25 C         139.9049  139.4182  166.3170 C.3     1  UNL1        0.1311
     26 O         138.8481  138.4258  165.9318 O.3     1  UNL1       -0.3808
     27 C         139.0819  139.5746  167.5613 C.3     1  UNL1        0.1293
     28 N         139.7560  140.5875  168.4386 N.am    1  UNL1       -0.2549
     29 C         139.4012  141.1429  169.7860 C.2     1  UNL1        0.2298
     30 O         138.1616  140.6732  170.4882 O.2     1  UNL1       -0.2745
     31 C         140.2859  142.1679  170.4314 C.3     1  UNL1        0.0919
     32 C         141.5255  142.6376  169.7293 C.3     1  UNL1        0.0567
     33 C         141.8803  142.0822  168.3818 C.ar    1  UNL1        0.0730
     34 N         143.0398  142.3630  167.4615 N.ar    1  UNL1       -0.2446
     35 C         143.2644  141.7204  166.1248 C.ar    1  UNL1        0.1278
     36 C         142.2883  140.7062  165.6067 C.ar    1  UNL1        0.1586
     37 F         142.5129  140.0636  164.2701 F       1  UNL1       -0.2027
     38 C         141.0875  140.3345  166.4253 C.ar    1  UNL1        0.0473
     39 C         140.9955  141.0572  167.7365 C.ar    1  UNL1        0.0679
     40 H         138.1835  138.3714  166.6363 H       1  UNL1        0.2107
@<TRIPOS>BOND
     1    12    13    2
     2    13    14    1
     3    14    15    1
     4    15    16    1
     5    16    17   ar
     6    17    18   ar
     7    18    19   ar
     8    19    11    1
     9    11     9    1
    10     9     1    1
    11     1     2    1
    12     2     3    1
    13     3     4    1
    14     4    24    1
    15    24    25    1
    16    25    26    1
    17    25    27    1
    18    27    28    1
    19    28    29   am
    20    29    30    2
    21    29    31    1
    22    31    32    1
    23    32    33    1
    24    33    34   ar
    25    34    35   ar
    26    35    36   ar
    27    36    37    1
    28    36    38   ar
    29    38    39   ar
    30     4     5    1
    31     5     6    1
    32     4     7    1
    33     7     8    1
    34    19    20   ar
    35    20    21   ar
    36    21    22    1
    37    22    13   am
    38    21    16   ar
    39     6     1    1
    40     8     1    1
    41    38    25    1
    42    39    28    1
    43    39    33   ar
    44     9    10    1
    45    26    40    1
    46    22    23    1
@<TRIPOS>MOLECULE
*****
 40 46 0 0 0
SMALL
GASTEIGER

@<TRIPOS>ATOM
      1 C         144.2844  140.1933  157.5456 C.3     1  UNL1        0.0700
      2 C         144.9321  141.5439  157.4672 C.3     1  UNL1        0.0193
      3 C         144.7720  142.5192  158.5955 C.3     1  UNL1        0.0287
      4 C         143.9641  142.1438  159.8024 C.3     1  UNL1        0.0955
      5 C         143.3163  140.7932  159.8809 C.3     1  UNL1        0.0287
      6 C         143.4765  139.8179  158.7525 C.3     1  UNL1        0.0193
      7 O         144.0236  141.5760  159.2091 O.3     1  UNL1       -0.3571
      8 C         144.1684  140.6941  158.1889 C.3     1  UNL1        0.1562
      9 N         144.4445  139.2180  156.4173 N.3     1  UNL1       -0.2926
     10 H         145.0286  139.6728  155.7156 H       1  UNL1        0.1236
     11 C         143.2350  138.6949  155.7009 C.3     1  UNL1        0.1152
     12 O         144.9916  131.4495  157.9745 O.2     1  UNL1       -0.2707
     13 C         144.0545  132.4089  157.3026 C.2     1  UNL1        0.2718
     14 C         142.7660  131.9126  156.7167 C.3     1  UNL1        0.2898
     15 O         141.8289  132.8720  156.0448 O.3     1  UNL1       -0.4628
     16 C         142.1804  134.3277  155.9588 C.ar    1  UNL1        0.1708
     17 C         141.2434  135.2872  155.2869 C.ar    1  UNL1        0.0411
     18 C         141.5949  136.7429  155.2010 C.ar    1  UNL1        0.0193
     19 C         142.8835  137.2391  155.7869 C.ar    1  UNL1        0.0765
     20 N         143.8205  136.2797  156.4588 N.ar    1  UNL1       -0.2304
     21 C         143.4690  134.8240  156.5447 C.ar    1  UNL1        0.1682
     22 N         144.4060  133.8646  157.2166 N.am    1  UNL1       -0.2639
     23 H         145.2518  134.1904  157.6012 H       1  UNL1        0.1565
     24 C         143.8040  143.1191  160.9308 C.3     1  UNL1        0.0602
     25 C         142.4643  143.7359  161.2046 C.3     1  UNL1        0.1311
     26 O         142.5315  144.1410  159.7619 O.3     1  UNL1       -0.3808
     27 C         141.1387  144.4373  161.1768 C.3     1  UNL1        0.1293
     28 N         140.5323  144.3368  162.5451 N.am    1  UNL1       -0.2549
     29 C         139.2372  144.8419  163.1086 C.2     1  UNL1        0.2298
     30 O         138.2864  145.6055  162.2352 O.2     1  UNL1       -0.2745
     31 C         138.8930  144.5835  164.5454 C.3     1  UNL1        0.0919
     32 C         139.8438  143.8199  165.4189 C.3     1  UNL1        0.0567
     33 C         141.1389  143.3148  164.8554 C.ar    1  UNL1        0.0730
     34 N         142.2635  142.5346  165.4855 N.ar    1  UNL1       -0.2446
     35 C         143.5149  142.0939  164.7857 C.ar    1  UNL1        0.1278
     36 C         143.7218  142.4276  163.3379 C.ar    1  UNL1        0.1586
     37 F         144.9732  141.9869  162.6381 F       1  UNL1       -0.2027
     38 C         142.6772  143.2019  162.5900 C.ar    1  UNL1        0.0473
     39 C         141.4832  143.5732  163.4185 C.ar    1  UNL1        0.0679
     40 H         141.7290  144.6324  159.5264 H       1  UNL1        0.2107
@<TRIPOS>BOND
     1    12    13    2
     2    13    14    1
     3    14    15    1
     4    15    16    1
     5    16    17   ar
     6    17    18   ar
     7    18    19   ar
     8    19    11    1
     9    11     9    1
    10     9     1    1
    11     1     2    1
    12     2     3    1
    13     3     4    1
    14     4    24    1
    15    24    25    1
    16    25    26    1
    17    25    27    1
    18    27    28    1
    19    28    29   am
    20    29    30    2
    21    29    31    1
    22    31    32    1
    23    32    33    1
    24    33    34   ar
    25    34    35   ar
    26    35    36   ar
    27    36    37    1
    28    36    38   ar
    29    38    39   ar
    30     4     5    1
    31     5     6    1
    32     4     7    1
    33     7     8    1
    34    19    20   ar
    35    20    21   ar
    36    21    22    1
    37    22    13   am
    38    21    16   ar
    39     6     1    1
    40     8     1    1
    41    38    25    1
    42    39    28    1
    43    39    33   ar
    44     9    10    1
    45    26    40    1
    46    22    23    1
@<TRIPOS>MOLECULE
*****
 40 46 0 0 0
SMALL
GASTEIGER

@<TRIPOS>ATOM
      1 C         142.3897  138.6362  159.8503 C.3     1  UNL1        0.0700
      2 C         142.4325  137.9146  161.1646 C.3     1  UNL1        0.0193
      3 C         141.7167  138.4811  162.3549 C.3     1  UNL1        0.0287
      4 C         140.9581  139.7692  162.2309 C.3     1  UNL1        0.0955
      5 C         140.9153  140.4909  160.9166 C.3     1  UNL1        0.0287
      6 C         141.6312  139.9243  159.7263 C.3     1  UNL1        0.0193
      7 O         141.3347  139.4979  161.5508 O.3     1  UNL1       -0.3571
      8 C         141.9819  138.9857  160.4746 C.3     1  UNL1        0.1562
      9 N         143.1055  138.0697  158.6601 N.3     1  UNL1       -0.2926
     10 H         143.6849  138.8187  158.2810 H       1  UNL1        0.1236
     11 C         142.3218  137.5054  157.5123 C.3     1  UNL1        0.1152
     12 O         145.0607  130.2534  158.3236 O.2     1  UNL1       -0.2707
     13 C         144.5444  131.3567  157.4482 C.2     1  UNL1        0.2718
     14 C         144.4247  131.1459  155.9680 C.3     1  UNL1        0.2898
     15 O         143.9084  132.2491  155.0925 O.3     1  UNL1       -0.4628
     16 C         143.5118  133.5632  155.6975 C.ar    1  UNL1        0.1708
     17 C         142.9954  134.6664  154.8222 C.ar    1  UNL1        0.0411
     18 C         142.5988  135.9805  155.4272 C.ar    1  UNL1        0.0193
     19 C         142.7185  136.1913  156.9074 C.ar    1  UNL1        0.0765
     20 N         143.2348  135.0880  157.7827 N.ar    1  UNL1       -0.2304
     21 C         143.6314  133.7739  157.1778 C.ar    1  UNL1        0.1682
     22 N         144.1478  132.6707  158.0531 N.am    1  UNL1       -0.2639
     23 H         144.2263  132.8091  159.0247 H       1  UNL1        0.1565
     24 C         140.2423  140.3357  163.4211 C.3     1  UNL1        0.0602
     25 C         141.0259  140.8962  164.5708 C.3     1  UNL1        0.1311
     26 O         141.8917  141.4777  163.4927 O.3     1  UNL1       -0.3808
     27 C         141.9906  141.5783  165.4951 C.3     1  UNL1        0.1293
     28 N         141.5572  141.3012  166.9042 N.am    1  UNL1       -0.2549
     29 C         142.1255  141.7157  168.2289 C.2     1  UNL1        0.2298
     30 O         143.3580  142.5690  168.2824 O.2     1  UNL1       -0.2745
     31 C         141.4614  141.2769  169.5003 C.3     1  UNL1        0.0919
     32 C         140.2289  140.4236  169.4468 C.3     1  UNL1        0.0567
     33 C         139.6606  140.0091  168.1220 C.ar    1  UNL1        0.0730
     34 N         138.4580  139.1718  167.7710 N.ar    1  UNL1       -0.2446
     35 C         138.0072  138.8376  166.3800 C.ar    1  UNL1        0.1278
     36 C         138.7764  139.3505  165.1988 C.ar    1  UNL1        0.1586
     37 F         138.3256  139.0163  163.8077 F       1  UNL1       -0.2027
     38 C         139.9964  140.1977  165.4086 C.ar    1  UNL1        0.0473
     39 C         140.3247  140.4480  166.8507 C.ar    1  UNL1        0.0679
     40 H         142.6142  141.9839  163.8960 H       1  UNL1        0.2107
@<TRIPOS>BOND
     1    12    13    2
     2    13    14    1
     3    14    15    1
     4    15    16    1
     5    16    17   ar
     6    17    18   ar
     7    18    19   ar
     8    19    11    1
     9    11     9    1
    10     9     1    1
    11     1     2    1
    12     2     3    1
    13     3     4    1
    14     4    24    1
    15    24    25    1
    16    25    26    1
    17    25    27    1
    18    27    28    1
    19    28    29   am
    20    29    30    2
    21    29    31    1
    22    31    32    1
    23    32    33    1
    24    33    34   ar
    25    34    35   ar
    26    35    36   ar
    27    36    37    1
    28    36    38   ar
    29    38    39   ar
    30     4     5    1
    31     5     6    1
    32     4     7    1
    33     7     8    1
    34    19    20   ar
    35    20    21   ar
    36    21    22    1
    37    22    13   am
    38    21    16   ar
    39     6     1    1
    40     8     1    1
    41    38    25    1
    42    39    28    1
    43    39    33   ar
    44     9    10    1
    45    26    40    1
    46    22    23    1
@<TRIPOS>MOLECULE
*****
 40 46 0 0 0
SMALL
GASTEIGER

@<TRIPOS>ATOM
      1 C         143.3709  139.5631  160.1369 C.3     1  UNL1        0.0700
      2 C         142.3612  140.4732  160.7711 C.3     1  UNL1        0.0193
      3 C         141.8037  140.1475  162.1250 C.3     1  UNL1        0.0287
      4 C         142.2560  138.9115  162.8448 C.3     1  UNL1        0.0955
      5 C         143.2657  138.0014  162.2107 C.3     1  UNL1        0.0287
      6 C         143.8231  138.3273  160.8567 C.3     1  UNL1        0.0193
      7 O         142.5898  139.0484  162.1047 O.3     1  UNL1       -0.3571
      8 C         143.0938  139.3429  160.8805 C.3     1  UNL1        0.1562
      9 N         143.9283  139.8889  158.7830 N.3     1  UNL1       -0.2926
     10 H         144.3294  140.8245  158.8470 H       1  UNL1        0.1236
     11 C         143.0305  139.8839  157.5813 C.3     1  UNL1        0.1152
     12 O         143.5373  132.1197  157.1210 O.2     1  UNL1       -0.2707
     13 C         142.8928  133.4068  156.6989 C.2     1  UNL1        0.2718
     14 C         141.7728  133.3928  155.7012 C.3     1  UNL1        0.2898
     15 O         141.1283  134.6799  155.2791 O.3     1  UNL1       -0.4628
     16 C         141.6038  135.9809  155.8546 C.ar    1  UNL1        0.1708
     17 C         140.9594  137.2679  155.4326 C.ar    1  UNL1        0.0411
     18 C         141.4350  138.5689  156.0082 C.ar    1  UNL1        0.0193
     19 C         142.5550  138.5828  157.0058 C.ar    1  UNL1        0.0765
     20 N         143.1994  137.2958  157.4279 N.ar    1  UNL1       -0.2304
     21 C         142.7239  135.9948  156.8523 C.ar    1  UNL1        0.1682
     22 N         143.3684  134.7078  157.2744 N.am    1  UNL1       -0.2639
     23 H         144.1035  134.7170  157.9292 H       1  UNL1        0.1565
     24 C         141.6986  138.5858  164.1988 C.3     1  UNL1        0.0602
     25 C         142.1120  139.3924  165.3940 C.3     1  UNL1        0.1311
     26 O         143.4273  139.4861  164.6790 O.3     1  UNL1       -0.3808
     27 C         142.8003  140.2186  166.4397 C.3     1  UNL1        0.1293
     28 N         141.8240  140.4669  167.5511 N.am    1  UNL1       -0.2549
     29 C         141.9443  141.2187  168.8435 C.2     1  UNL1        0.2298
     30 O         143.2361  141.8914  169.2024 O.2     1  UNL1       -0.2745
     31 C         140.7729  141.2977  169.7770 C.3     1  UNL1        0.0919
     32 C         139.4812  140.6249  169.4181 C.3     1  UNL1        0.0567
     33 C         139.3608  139.8732  168.1257 C.ar    1  UNL1        0.0730
     34 N         138.2098  139.1153  167.5166 N.ar    1  UNL1       -0.2446
     35 C         138.2388  138.4035  166.1966 C.ar    1  UNL1        0.1278
     36 C         139.4890  138.4109  165.3678 C.ar    1  UNL1        0.1586
     37 F         139.5180  137.6990  164.0478 F       1  UNL1       -0.2027
     38 C         140.7102  139.1301  165.8591 C.ar    1  UNL1        0.0473
     39 C         140.5322  139.7942  167.1922 C.ar    1  UNL1        0.0679
     40 H         144.0485  140.0068  165.2118 H       1  UNL1        0.2107
@<TRIPOS>BOND
     1    12    13    2
     2    13    14    1
     3    14    15    1
     4    15    16    1
     5    16    17   ar
     6    17    18   ar
     7    18    19   ar
     8    19    11    1
     9    11     9    1
    10     9     1    1
    11     1     2    1
    12     2     3    1
    13     3     4    1
    14     4    24    1
    15    24    25    1
    16    25    26    1
    17    25    27    1
    18    27    28    1
    19    28    29   am
    20    29    30    2
    21    29    31    1
    22    31    32    1
    23    32    33    1
    24    33    34   ar
    25    34    35   ar
    26    35    36   ar
    27    36    37    1
    28    36    38   ar
    29    38    39   ar
    30     4     5    1
    31     5     6    1
    32     4     7    1
    33     7     8    1
    34    19    20   ar
    35    20    21   ar
    36    21    22    1
    37    22    13   am
    38    21    16   ar
    39     6     1    1
    40     8     1    1
    41    38    25    1
    42    39    28    1
    43    39    33   ar
    44     9    10    1
    45    26    40    1
    46    22    23    1
@<TRIPOS>MOLECULE
*****
 40 46 0 0 0
SMALL
GASTEIGER

@<TRIPOS>ATOM
      1 C         141.3047  139.1490  158.1360 C.3     1  UNL1        0.0700
      2 C         142.1355  139.6272  159.2897 C.3     1  UNL1        0.0193
      3 C         141.6976  139.3459  160.6966 C.3     1  UNL1        0.0287
      4 C         140.4290  138.5865  160.9497 C.3     1  UNL1        0.0955
      5 C         139.5982  138.1084  159.7959 C.3     1  UNL1        0.0287
      6 C         140.0361  138.3897  158.3890 C.3     1  UNL1        0.0193
      7 O         140.6281  138.7166  160.1614 O.3     1  UNL1       -0.3571
      8 C         141.0240  138.9709  158.8893 C.3     1  UNL1        0.1562
      9 N         141.7426  139.4302  156.7291 N.3     1  UNL1       -0.2926
     10 H         140.9061  139.3902  156.1468 H       1  UNL1        0.1236
     11 C         142.7687  138.5542  156.0738 C.3     1  UNL1        0.1152
     12 O         145.1736  131.4059  158.0406 O.2     1  UNL1       -0.2707
     13 C         144.1816  132.3010  157.3589 C.2     1  UNL1        0.2718
     14 C         142.9993  131.7085  156.6512 C.3     1  UNL1        0.2898
     15 O         142.0072  132.6036  155.9695 O.3     1  UNL1       -0.4628
     16 C         142.1976  134.0913  155.9956 C.ar    1  UNL1        0.1708
     17 C         141.2057  134.9864  155.3139 C.ar    1  UNL1        0.0411
     18 C         141.3961  136.4740  155.3400 C.ar    1  UNL1        0.0193
     19 C         142.5784  137.0665  156.0477 C.ar    1  UNL1        0.0765
     20 N         143.5704  136.1714  156.7294 N.ar    1  UNL1       -0.2304
     21 C         143.3800  134.6837  156.7033 C.ar    1  UNL1        0.1682
     22 N         144.3720  133.7887  157.3850 N.am    1  UNL1       -0.2639
     23 H         145.1480  134.1776  157.8495 H       1  UNL1        0.1565
     24 C         139.9911  138.3053  162.3565 C.3     1  UNL1        0.0602
     25 C         141.0136  138.1425  163.4418 C.3     1  UNL1        0.1311
     26 O         141.5336  137.0384  162.5697 O.3     1  UNL1       -0.3808
     27 C         142.1448  137.7489  164.3449 C.3     1  UNL1        0.1293
     28 N         142.1102  138.6437  165.5482 N.am    1  UNL1       -0.2549
     29 C         142.9794  138.7188  166.7685 C.2     1  UNL1        0.2298
     30 O         144.1319  137.7721  166.9278 O.2     1  UNL1       -0.2745
     31 C         142.6959  139.7406  167.8294 C.3     1  UNL1        0.0919
     32 C         141.5433  140.6872  167.6701 C.3     1  UNL1        0.0567
     33 C         140.6742  140.6122  166.4499 C.ar    1  UNL1        0.0730
     34 N         139.4721  141.4182  166.0308 N.ar    1  UNL1       -0.2446
     35 C         138.6944  141.2247  164.7629 C.ar    1  UNL1        0.1278
     36 C         139.0983  140.1559  163.7910 C.ar    1  UNL1        0.1586
     37 F         138.3207  139.9624  162.5231 F       1  UNL1       -0.2027
     38 C         140.2800  139.2806  164.0871 C.ar    1  UNL1        0.0473
     39 C         140.9577  139.5904  165.3889 C.ar    1  UNL1        0.0679
     40 H         142.3058  136.6298  162.9912 H       1  UNL1        0.2107
@<TRIPOS>BOND
     1    12    13    2
     2    13    14    1
     3    14    15    1
     4    15    16    1
     5    16    17   ar
     6    17    18   ar
     7    18    19   ar
     8    19    11    1
     9    11     9    1
    10     9     1    1
    11     1     2    1
    12     2     3    1
    13     3     4    1
    14     4    24    1
    15    24    25    1
    16    25    26    1
    17    25    27    1
    18    27    28    1
    19    28    29   am
    20    29    30    2
    21    29    31    1
    22    31    32    1
    23    32    33    1
    24    33    34   ar
    25    34    35   ar
    26    35    36   ar
    27    36    37    1
    28    36    38   ar
    29    38    39   ar
    30     4     5    1
    31     5     6    1
    32     4     7    1
    33     7     8    1
    34    19    20   ar
    35    20    21   ar
    36    21    22    1
    37    22    13   am
    38    21    16   ar
    39     6     1    1
    40     8     1    1
    41    38    25    1
    42    39    28    1
    43    39    33   ar
    44     9    10    1
    45    26    40    1
    46    22    23    1
@<TRIPOS>MOLECULE
*****
 40 46 0 0 0
SMALL
GASTEIGER

@<TRIPOS>ATOM
      1 C         140.0156  137.5110  164.1215 C.3     1  UNL1        0.0700
      2 C         141.4671  137.6107  164.4867 C.3     1  UNL1        0.0193
      3 C         142.4756  138.0094  163.4504 C.3     1  UNL1        0.0287
      4 C         142.0326  138.3084  162.0488 C.3     1  UNL1        0.0955
      5 C         140.5812  138.2088  161.6836 C.3     1  UNL1        0.0287
      6 C         139.5727  137.8101  162.7200 C.3     1  UNL1        0.0193
      7 O         141.4433  138.0939  162.5823 O.3     1  UNL1       -0.3571
      8 C         140.5314  137.7334  163.5193 C.3     1  UNL1        0.1562
      9 N         139.0071  137.1123  165.1578 N.3     1  UNL1       -0.2926
     10 H         138.2890  136.5707  164.6768 H       1  UNL1        0.1236
     11 C         138.2947  138.1646  165.9548 C.3     1  UNL1        0.1152
     12 O         137.7368  145.0795  162.4018 O.2     1  UNL1       -0.2707
     13 C         138.3355  144.2118  163.4690 C.2     1  UNL1        0.2718
     14 C         139.3469  144.7815  164.4188 C.3     1  UNL1        0.2898
     15 O         139.9457  143.9139  165.4860 O.3     1  UNL1       -0.4628
     16 C         139.5330  142.4766  165.6032 C.ar    1  UNL1        0.1708
     17 C         140.1317  141.6090  166.6703 C.ar    1  UNL1        0.0411
     18 C         139.7189  140.1717  166.7875 C.ar    1  UNL1        0.0193
     19 C         138.7074  139.6020  165.8376 C.ar    1  UNL1        0.0765
     20 N         138.1087  140.4696  164.7705 N.ar    1  UNL1       -0.2304
     21 C         138.5215  141.9069  164.6533 C.ar    1  UNL1        0.1682
     22 N         137.9228  142.7745  163.5861 N.am    1  UNL1       -0.2639
     23 H         137.2589  142.4005  162.9627 H       1  UNL1        0.1565
     24 C         143.0411  138.7071  161.0125 C.3     1  UNL1        0.0602
     25 C         143.0110  140.0887  160.4290 C.3     1  UNL1        0.1311
     26 O         143.1181  140.5252  161.8601 O.3     1  UNL1       -0.3808
     27 C         143.0032  141.5614  160.1447 C.3     1  UNL1        0.1293
     28 N         142.8976  141.7464  158.6599 N.am    1  UNL1       -0.2549
     29 C         142.8463  142.9763  157.8028 C.2     1  UNL1        0.2298
     30 O         142.9038  144.3348  158.4362 O.2     1  UNL1       -0.2745
     31 C         142.7376  142.8477  156.3123 C.3     1  UNL1        0.0919
     32 C         142.6801  141.4892  155.6790 C.3     1  UNL1        0.0567
     33 C         142.7313  140.2593  156.5361 C.ar    1  UNL1        0.0730
     34 N         142.6931  138.7952  156.1822 N.ar    1  UNL1       -0.2446
     35 C         142.7541  137.6617  157.1628 C.ar    1  UNL1        0.1278
     36 C         142.8626  137.9459  158.6317 C.ar    1  UNL1        0.1586
     37 F         142.9236  136.8124  159.6123 F       1  UNL1       -0.2027
     38 C         142.9101  139.3634  159.1199 C.ar    1  UNL1        0.0473
     39 C         142.8401  140.3879  158.0265 C.ar    1  UNL1        0.0679
     40 H         143.1295  141.4942  161.9026 H       1  UNL1        0.2107
@<TRIPOS>BOND
     1    12    13    2
     2    13    14    1
     3    14    15    1
     4    15    16    1
     5    16    17   ar
     6    17    18   ar
     7    18    19   ar
     8    19    11    1
     9    11     9    1
    10     9     1    1
    11     1     2    1
    12     2     3    1
    13     3     4    1
    14     4    24    1
    15    24    25    1
    16    25    26    1
    17    25    27    1
    18    27    28    1
    19    28    29   am
    20    29    30    2
    21    29    31    1
    22    31    32    1
    23    32    33    1
    24    33    34   ar
    25    34    35   ar
    26    35    36   ar
    27    36    37    1
    28    36    38   ar
    29    38    39   ar
    30     4     5    1
    31     5     6    1
    32     4     7    1
    33     7     8    1
    34    19    20   ar
    35    20    21   ar
    36    21    22    1
    37    22    13   am
    38    21    16   ar
    39     6     1    1
    40     8     1    1
    41    38    25    1
    42    39    28    1
    43    39    33   ar
    44     9    10    1
    45    26    40    1
    46    22    23    1
@<TRIPOS>MOLECULE
*****
 40 46 0 0 0
SMALL
GASTEIGER

@<TRIPOS>ATOM
      1 C         142.1353  137.9216  158.0383 C.3     1  UNL1        0.0700
      2 C         140.7787  138.0310  157.4077 C.3     1  UNL1        0.0193
      3 C         139.6341  138.6086  158.1864 C.3     1  UNL1        0.0287
      4 C         139.8461  139.0767  159.5957 C.3     1  UNL1        0.0955
      5 C         141.2027  138.9673  160.2263 C.3     1  UNL1        0.0287
      6 C         142.3473  138.3898  159.4475 C.3     1  UNL1        0.0193
      7 O         140.5037  138.7673  159.2086 O.3     1  UNL1       -0.3571
      8 C         141.5386  138.2451  158.5046 C.3     1  UNL1        0.1562
      9 N         143.2800  137.3441  157.2597 N.3     1  UNL1       -0.2926
     10 H         143.8902  138.1229  157.0119 H       1  UNL1        0.1236
     11 C         143.0175  136.5804  155.9957 C.3     1  UNL1        0.1152
     12 O         145.1421  129.5973  158.7295 O.2     1  UNL1       -0.2707
     13 C         144.2487  130.4372  157.8655 C.2     1  UNL1        0.2718
     14 C         143.1701  129.7894  157.0490 C.3     1  UNL1        0.2898
     15 O         142.2766  130.6292  156.1850 O.3     1  UNL1       -0.4628
     16 C         142.4619  132.1170  156.1377 C.ar    1  UNL1        0.1708
     17 C         141.5685  132.9569  155.2738 C.ar    1  UNL1        0.0411
     18 C         141.7537  134.4447  155.2265 C.ar    1  UNL1        0.0193
     19 C         142.8323  135.0926  156.0431 C.ar    1  UNL1        0.0765
     20 N         143.7257  134.2526  156.9070 N.ar    1  UNL1       -0.2304
     21 C         143.5405  132.7649  156.9543 C.ar    1  UNL1        0.1682
     22 N         144.4339  131.9250  157.8182 N.am    1  UNL1       -0.2639
     23 H         145.1418  132.3502  158.3541 H       1  UNL1        0.1565
     24 C         138.7014  139.6543  160.3743 C.3     1  UNL1        0.0602
     25 C         138.6810  141.1175  160.7039 C.3     1  UNL1        0.1311
     26 O         138.7996  141.2929  159.2189 O.3     1  UNL1       -0.3808
     27 C         138.6854  142.6173  160.7231 C.3     1  UNL1        0.1293
     28 N         138.5739  143.0630  162.1510 N.am    1  UNL1       -0.2549
     29 C         138.5296  144.4256  162.7766 C.2     1  UNL1        0.2298
     30 O         138.6030  145.6500  161.9133 O.2     1  UNL1       -0.2745
     31 C         138.4120  144.5637  164.2656 C.3     1  UNL1        0.0919
     32 C         138.3387  143.3392  165.1289 C.3     1  UNL1        0.0567
     33 C         138.3829  141.9767  164.5033 C.ar    1  UNL1        0.0730
     34 N         138.3293  140.5986  165.1103 N.ar    1  UNL1       -0.2446
     35 C         138.3849  139.3091  164.3461 C.ar    1  UNL1        0.1278
     36 C         138.5036  139.3279  162.8510 C.ar    1  UNL1        0.1586
     37 F         138.5592  138.0383  162.0868 F       1  UNL1       -0.2027
     38 C         138.5668  140.6362  162.1200 C.ar    1  UNL1        0.0473
     39 C         138.5006  141.8386  163.0143 C.ar    1  UNL1        0.0679
     40 H         138.8202  142.2390  159.0057 H       1  UNL1        0.2107
@<TRIPOS>BOND
     1    12    13    2
     2    13    14    1
     3    14    15    1
     4    15    16    1
     5    16    17   ar
     6    17    18   ar
     7    18    19   ar
     8    19    11    1
     9    11     9    1
    10     9     1    1
    11     1     2    1
    12     2     3    1
    13     3     4    1
    14     4    24    1
    15    24    25    1
    16    25    26    1
    17    25    27    1
    18    27    28    1
    19    28    29   am
    20    29    30    2
    21    29    31    1
    22    31    32    1
    23    32    33    1
    24    33    34   ar
    25    34    35   ar
    26    35    36   ar
    27    36    37    1
    28    36    38   ar
    29    38    39   ar
    30     4     5    1
    31     5     6    1
    32     4     7    1
    33     7     8    1
    34    19    20   ar
    35    20    21   ar
    36    21    22    1
    37    22    13   am
    38    21    16   ar
    39     6     1    1
    40     8     1    1
    41    38    25    1
    42    39    28    1
    43    39    33   ar
    44     9    10    1
    45    26    40    1
    46    22    23    1
