@<TRIPOS>MOLECULE
*****
 29 33 0 0 0
SMALL
GASTEIGER

@<TRIPOS>ATOM
      1 C         141.2759  137.8226  163.2120 C.3     1  UNL1        0.1467
      2 C         139.6716  139.3457  157.9253 C.3     1  UNL1        0.0896
      3 N         139.8627  139.0300  159.3792 N.3     1  UNL1       -0.2715
      4 C         138.7666  139.3223  160.3606 C.3     1  UNL1        0.0725
      5 C         138.9577  139.0066  161.8145 C.3     1  UNL1        0.0238
      6 C         140.2449  138.3986  162.2870 C.3     1  UNL1        0.0489
      7 C         141.3410  138.1063  161.3057 C.3     1  UNL1        0.0238
      8 C         141.1499  138.4220  159.8518 C.3     1  UNL1        0.0725
      9 C         139.5068  138.4908  163.5896 C.ar    1  UNL1       -0.0202
     10 C         139.4427  137.3014  164.5012 C.ar    1  UNL1       -0.0019
     11 C         138.7047  137.3936  165.8038 C.ar    1  UNL1        0.0293
     12 C         138.0306  138.6753  166.1947 C.ar    1  UNL1        0.1401
     13 F         137.2925  138.7676  167.4973 F       1  UNL1       -0.2042
     14 C         138.0946  139.8648  165.2831 C.ar    1  UNL1        0.0293
     15 C         138.8328  139.7726  163.9805 C.ar    1  UNL1       -0.0019
     16 O         142.6280  138.4629  163.3199 O.3     1  UNL1       -0.3470
     17 C         143.0839  139.0364  164.6289 C.3     1  UNL1        0.1874
     18 C         142.2366  140.0498  165.3395 C.ar    1  UNL1        0.0881
     19 C         141.6910  139.7472  166.7036 C.ar    1  UNL1        0.0130
     20 C         140.8437  140.7607  167.4142 C.ar    1  UNL1       -0.0201
     21 C         140.5419  142.0767  166.7607 C.ar    1  UNL1        0.0104
     22 C         141.0875  142.3792  165.3965 C.ar    1  UNL1        0.0580
     23 N         141.9348  141.3658  164.6859 N.ar    1  UNL1       -0.2515
     24 C         140.2981  140.4582  168.7784 C.3     1  UNL1        0.0224
     25 C         139.1450  140.4184  169.7367 C.3     1  UNL1        0.0047
     26 C         140.5064  139.9740  170.1827 C.3     1  UNL1        0.0047
     27 C         140.7857  143.6952  164.7430 C.3     1  UNL1        0.0403
     28 C         139.8016  144.7624  164.3648 C.3     1  UNL1        0.0063
     29 C         141.2467  144.9074  163.9894 C.3     1  UNL1        0.0063
@<TRIPOS>BOND
     1     2     3    1
     2     3     4    1
     3     4     5    1
     4     5     6    1
     5     6     1    1
     6     1    16    1
     7    16    17    1
     8    17    18    1
     9    18    19   ar
    10    19    20   ar
    11    20    24    1
    12    24    25    1
    13    25    26    1
    14    20    21   ar
    15    21    22   ar
    16    22    27    1
    17    27    28    1
    18    28    29    1
    19    22    23   ar
    20     6     9    1
    21     9    10   ar
    22    10    11   ar
    23    11    12   ar
    24    12    13    1
    25    12    14   ar
    26    14    15   ar
    27     6     7    1
    28     7     8    1
    29     8     3    1
    30    23    18   ar
    31    15     9   ar
    32    26    24    1
    33    29    27    1
@<TRIPOS>MOLECULE
*****
 29 33 0 0 0
SMALL
GASTEIGER

@<TRIPOS>ATOM
      1 C         140.4213  137.8139  162.7593 C.3     1  UNL1        0.1467
      2 C         138.2369  140.4035  158.1371 C.3     1  UNL1        0.0896
      3 N         138.6186  139.8366  159.4724 N.3     1  UNL1       -0.2715
      4 C         137.8031  140.1653  160.6876 C.3     1  UNL1        0.0725
      5 C         138.1847  139.5983  162.0229 C.3     1  UNL1        0.0238
      6 C         139.3819  138.7027  162.1429 C.3     1  UNL1        0.0489
      7 C         140.1975  138.3739  160.9277 C.3     1  UNL1        0.0238
      8 C         139.8158  138.9409  159.5924 C.3     1  UNL1        0.0725
      9 C         138.9273  138.7227  163.5722 C.ar    1  UNL1       -0.0202
     10 C         138.4804  140.0100  164.1991 C.ar    1  UNL1       -0.0019
     11 C         138.0258  140.0302  165.6284 C.ar    1  UNL1        0.0293
     12 C         138.0182  138.7629  166.4308 C.ar    1  UNL1        0.1401
     13 F         137.5636  138.7830  167.8602 F       1  UNL1       -0.2042
     14 C         138.4651  137.4755  165.8040 C.ar    1  UNL1        0.0293
     15 C         138.9197  137.4554  164.3747 C.ar    1  UNL1       -0.0019
     16 O         141.8764  138.1454  162.6086 O.3     1  UNL1       -0.3470
     17 C         142.6743  138.5794  163.8024 C.3     1  UNL1        0.1874
     18 C         142.1693  139.6862  164.6800 C.ar    1  UNL1        0.0881
     19 C         142.0388  141.0768  164.1330 C.ar    1  UNL1        0.0130
     20 C         141.5338  142.1835  165.0105 C.ar    1  UNL1       -0.0201
     21 C         141.1592  141.8997  166.4350 C.ar    1  UNL1        0.0104
     22 C         141.2897  140.5090  166.9820 C.ar    1  UNL1        0.0580
     23 N         141.7947  139.4022  166.1044 N.ar    1  UNL1       -0.2515
     24 C         141.4033  143.5742  164.4636 C.3     1  UNL1        0.0224
     25 C         140.5440  144.7307  164.0466 C.3     1  UNL1        0.0047
     26 C         142.0367  144.8263  163.9334 C.3     1  UNL1        0.0047
     27 C         140.9151  140.2252  168.4064 C.3     1  UNL1        0.0403
     28 C         141.2563  139.6513  169.7497 C.3     1  UNL1        0.0063
     29 C         139.9253  140.3073  169.5304 C.3     1  UNL1        0.0063
@<TRIPOS>BOND
     1     2     3    1
     2     3     4    1
     3     4     5    1
     4     5     6    1
     5     6     1    1
     6     1    16    1
     7    16    17    1
     8    17    18    1
     9    18    19   ar
    10    19    20   ar
    11    20    24    1
    12    24    25    1
    13    25    26    1
    14    20    21   ar
    15    21    22   ar
    16    22    27    1
    17    27    28    1
    18    28    29    1
    19    22    23   ar
    20     6     9    1
    21     9    10   ar
    22    10    11   ar
    23    11    12   ar
    24    12    13    1
    25    12    14   ar
    26    14    15   ar
    27     6     7    1
    28     7     8    1
    29     8     3    1
    30    23    18   ar
    31    15     9   ar
    32    26    24    1
    33    29    27    1
@<TRIPOS>MOLECULE
*****
 29 33 0 0 0
SMALL
GASTEIGER

@<TRIPOS>ATOM
      1 C         142.1166  137.9836  163.3891 C.3     1  UNL1        0.1467
      2 C         141.2626  138.4733  157.7435 C.3     1  UNL1        0.0896
      3 N         141.2415  138.4076  159.2419 N.3     1  UNL1       -0.2715
      4 C         139.9736  138.7011  159.9877 C.3     1  UNL1        0.0725
      5 C         139.9526  138.6354  161.4861 C.3     1  UNL1        0.0238
      6 C         141.1994  138.2762  162.2387 C.3     1  UNL1        0.0489
      7 C         142.4673  137.9827  161.4928 C.3     1  UNL1        0.0238
      8 C         142.4883  138.0484  159.9944 C.3     1  UNL1        0.0725
      9 C         140.2500  138.4681  163.3841 C.ar    1  UNL1       -0.0202
     10 C         139.4350  139.7236  163.4805 C.ar    1  UNL1       -0.0019
     11 C         138.4857  139.9155  164.6258 C.ar    1  UNL1        0.0293
     12 C         138.3513  138.8518  165.6748 C.ar    1  UNL1        0.1401
     13 F         137.4019  139.0437  166.8202 F       1  UNL1       -0.2042
     14 C         139.1662  137.5962  165.5785 C.ar    1  UNL1        0.0293
     15 C         140.1156  137.4043  164.4331 C.ar    1  UNL1       -0.0019
     16 O         143.4537  138.6581  163.4724 O.3     1  UNL1       -0.3470
     17 C         143.7945  139.5031  164.6641 C.3     1  UNL1        0.1874
     18 C         142.7486  140.3811  165.2847 C.ar    1  UNL1        0.0881
     19 C         142.3410  141.6558  164.6071 C.ar    1  UNL1        0.0130
     20 C         141.2951  142.5337  165.2278 C.ar    1  UNL1       -0.0201
     21 C         140.6568  142.1371  166.5259 C.ar    1  UNL1        0.0104
     22 C         141.0644  140.8624  167.2035 C.ar    1  UNL1        0.0580
     23 N         142.1103  139.9844  166.5829 N.ar    1  UNL1       -0.2515
     24 C         140.8875  143.8085  164.5503 C.3     1  UNL1        0.0224
     25 C         141.2556  145.0783  163.8419 C.3     1  UNL1        0.0047
     26 C         139.8132  144.7463  164.0852 C.3     1  UNL1        0.0047
     27 C         140.4261  140.4658  168.5016 C.3     1  UNL1        0.0403
     28 C         140.5441  139.9196  169.8938 C.3     1  UNL1        0.0063
     29 C         139.2028  140.3249  169.3582 C.3     1  UNL1        0.0063
@<TRIPOS>BOND
     1     2     3    1
     2     3     4    1
     3     4     5    1
     4     5     6    1
     5     6     1    1
     6     1    16    1
     7    16    17    1
     8    17    18    1
     9    18    19   ar
    10    19    20   ar
    11    20    24    1
    12    24    25    1
    13    25    26    1
    14    20    21   ar
    15    21    22   ar
    16    22    27    1
    17    27    28    1
    18    28    29    1
    19    22    23   ar
    20     6     9    1
    21     9    10   ar
    22    10    11   ar
    23    11    12   ar
    24    12    13    1
    25    12    14   ar
    26    14    15   ar
    27     6     7    1
    28     7     8    1
    29     8     3    1
    30    23    18   ar
    31    15     9   ar
    32    26    24    1
    33    29    27    1
@<TRIPOS>MOLECULE
*****
 29 33 0 0 0
SMALL
GASTEIGER

@<TRIPOS>ATOM
      1 C         141.8871  137.8322  162.8586 C.3     1  UNL1        0.1467
      2 C         143.5230  139.7693  157.7192 C.3     1  UNL1        0.0896
      3 N         143.1932  139.4781  159.1532 N.3     1  UNL1       -0.2715
      4 C         143.5588  140.4648  160.2222 C.3     1  UNL1        0.0725
      5 C         143.2290  140.1736  161.6562 C.3     1  UNL1        0.0238
      6 C         142.5336  138.8957  162.0213 C.3     1  UNL1        0.0489
      7 C         142.1679  137.9091  160.9523 C.3     1  UNL1        0.0238
      8 C         142.4978  138.2003  159.5183 C.3     1  UNL1        0.0725
      9 C         142.6747  139.5131  163.3811 C.ar    1  UNL1       -0.0202
     10 C         143.1047  138.6715  164.5459 C.ar    1  UNL1       -0.0019
     11 C         143.2458  139.2888  165.9057 C.ar    1  UNL1        0.0293
     12 C         142.9570  140.7478  166.1006 C.ar    1  UNL1        0.1401
     13 F         143.0981  141.3652  167.4603 F       1  UNL1       -0.2042
     14 C         142.5270  141.5895  164.9358 C.ar    1  UNL1        0.0293
     15 C         142.3859  140.9721  163.5760 C.ar    1  UNL1       -0.0019
     16 O         140.5327  137.3053  162.4872 O.3     1  UNL1       -0.3470
     17 C         139.3666  137.5202  163.4060 C.3     1  UNL1        0.1874
     18 C         139.2506  138.7970  164.1846 C.ar    1  UNL1        0.0881
     19 C         139.5298  138.8048  165.6584 C.ar    1  UNL1        0.0130
     20 C         139.4138  140.0816  166.4369 C.ar    1  UNL1       -0.0201
     21 C         139.0185  141.3507  165.7418 C.ar    1  UNL1        0.0104
     22 C         138.7393  141.3429  164.2680 C.ar    1  UNL1        0.0580
     23 N         138.8553  140.0661  163.4894 N.ar    1  UNL1       -0.2515
     24 C         139.6930  140.0895  167.9108 C.3     1  UNL1        0.0224
     25 C         140.6492  139.9118  169.0526 C.3     1  UNL1        0.0047
     26 C         139.2203  140.2808  169.3214 C.3     1  UNL1        0.0047
     27 C         138.3440  142.6120  163.5729 C.3     1  UNL1        0.0403
     28 C         137.8566  143.3232  162.3454 C.3     1  UNL1        0.0063
     29 C         138.1468  144.0988  163.5961 C.3     1  UNL1        0.0063
@<TRIPOS>BOND
     1     2     3    1
     2     3     4    1
     3     4     5    1
     4     5     6    1
     5     6     1    1
     6     1    16    1
     7    16    17    1
     8    17    18    1
     9    18    19   ar
    10    19    20   ar
    11    20    24    1
    12    24    25    1
    13    25    26    1
    14    20    21   ar
    15    21    22   ar
    16    22    27    1
    17    27    28    1
    18    28    29    1
    19    22    23   ar
    20     6     9    1
    21     9    10   ar
    22    10    11   ar
    23    11    12   ar
    24    12    13    1
    25    12    14   ar
    26    14    15   ar
    27     6     7    1
    28     7     8    1
    29     8     3    1
    30    23    18   ar
    31    15     9   ar
    32    26    24    1
    33    29    27    1
@<TRIPOS>MOLECULE
*****
 29 33 0 0 0
SMALL
GASTEIGER

@<TRIPOS>ATOM
      1 C         138.1437  139.9058  163.9386 C.3     1  UNL1        0.1467
      2 C         140.3241  138.6367  158.7930 C.3     1  UNL1        0.0896
      3 N         139.8390  139.2029  160.0946 N.3     1  UNL1       -0.2715
      4 C         140.0727  140.6491  160.4169 C.3     1  UNL1        0.0725
      5 C         139.5877  141.2153  161.7185 C.3     1  UNL1        0.0238
      6 C         138.8688  140.3353  162.6977 C.3     1  UNL1        0.0489
      7 C         138.6351  138.8892  162.3754 C.3     1  UNL1        0.0238
      8 C         139.1202  138.3230  161.0738 C.3     1  UNL1        0.0725
      9 C         138.8508  141.6324  163.4510 C.ar    1  UNL1       -0.0202
     10 C         140.1402  142.2784  163.8632 C.ar    1  UNL1       -0.0019
     11 C         140.1222  143.5754  164.6164 C.ar    1  UNL1        0.0293
     12 C         138.8146  144.2264  164.9575 C.ar    1  UNL1        0.1401
     13 F         138.7965  145.5234  165.7108 F       1  UNL1       -0.2042
     14 C         137.5251  143.5804  164.5454 C.ar    1  UNL1        0.0293
     15 C         137.5432  142.2834  163.7921 C.ar    1  UNL1       -0.0019
     16 O         138.4668  138.5878  164.5778 O.3     1  UNL1       -0.3470
     17 C         139.1496  138.5491  165.9129 C.3     1  UNL1        0.1874
     18 C         140.2752  139.4958  166.2074 C.ar    1  UNL1        0.0881
     19 C         140.1348  140.5101  167.3036 C.ar    1  UNL1        0.0130
     20 C         141.2605  141.4567  167.5980 C.ar    1  UNL1       -0.0201
     21 C         142.5264  141.3892  166.7963 C.ar    1  UNL1        0.0104
     22 C         142.6668  140.3750  165.7001 C.ar    1  UNL1        0.0580
     23 N         141.5412  139.4283  165.4056 N.ar    1  UNL1       -0.2515
     24 C         141.1202  142.4711  168.6942 C.3     1  UNL1        0.0224
     25 C         140.3542  143.5863  169.3418 C.3     1  UNL1        0.0047
     26 C         141.6432  143.1125  169.9452 C.3     1  UNL1        0.0047
     27 C         143.9327  140.3075  164.8984 C.3     1  UNL1        0.0403
     28 C         145.0288  139.5015  164.2666 C.3     1  UNL1        0.0063
     29 C         145.0294  140.9963  164.1416 C.3     1  UNL1        0.0063
@<TRIPOS>BOND
     1     2     3    1
     2     3     4    1
     3     4     5    1
     4     5     6    1
     5     6     1    1
     6     1    16    1
     7    16    17    1
     8    17    18    1
     9    18    19   ar
    10    19    20   ar
    11    20    24    1
    12    24    25    1
    13    25    26    1
    14    20    21   ar
    15    21    22   ar
    16    22    27    1
    17    27    28    1
    18    28    29    1
    19    22    23   ar
    20     6     9    1
    21     9    10   ar
    22    10    11   ar
    23    11    12   ar
    24    12    13    1
    25    12    14   ar
    26    14    15   ar
    27     6     7    1
    28     7     8    1
    29     8     3    1
    30    23    18   ar
    31    15     9   ar
    32    26    24    1
    33    29    27    1
@<TRIPOS>MOLECULE
*****
 29 33 0 0 0
SMALL
GASTEIGER

@<TRIPOS>ATOM
      1 C         144.9054  142.2448  162.4038 C.3     1  UNL1        0.1467
      2 C         143.3616  141.3424  156.9592 C.3     1  UNL1        0.0896
      3 N         143.6309  141.3702  158.4346 N.3     1  UNL1       -0.2715
      4 C         143.0516  140.3093  159.3228 C.3     1  UNL1        0.0725
      5 C         143.3209  140.3370  160.7982 C.3     1  UNL1        0.0238
      6 C         144.1693  141.4257  161.3853 C.3     1  UNL1        0.0489
      7 C         144.7485  142.4866  160.4971 C.3     1  UNL1        0.0238
      8 C         144.4793  142.4589  159.0218 C.3     1  UNL1        0.0725
      9 C         143.8457  140.6493  162.6273 C.ar    1  UNL1       -0.0202
     10 C         144.9522  140.1282  163.4957 C.ar    1  UNL1       -0.0019
     11 C         144.6287  139.3517  164.7376 C.ar    1  UNL1        0.0293
     12 C         143.1986  139.0963  165.1111 C.ar    1  UNL1        0.1401
     13 F         142.8750  138.3198  166.3530 F       1  UNL1       -0.2042
     14 C         142.0920  139.6174  164.2427 C.ar    1  UNL1        0.0293
     15 C         142.4156  140.3939  163.0008 C.ar    1  UNL1       -0.0019
     16 O         144.4195  143.6202  162.7535 O.3     1  UNL1       -0.3470
     17 C         144.2555  144.0146  164.1914 C.3     1  UNL1        0.1874
     18 C         143.1367  143.4350  165.0052 C.ar    1  UNL1        0.0881
     19 C         143.4402  142.6608  166.2537 C.ar    1  UNL1        0.0130
     20 C         142.3213  142.0813  167.0673 C.ar    1  UNL1       -0.0201
     21 C         140.8990  142.2758  166.6327 C.ar    1  UNL1        0.0104
     22 C         140.5954  143.0499  165.3842 C.ar    1  UNL1        0.0580
     23 N         141.7143  143.6295  164.5705 N.ar    1  UNL1       -0.2515
     24 C         142.6248  141.3071  168.3158 C.3     1  UNL1        0.0224
     25 C         143.2222  141.2405  169.6900 C.3     1  UNL1        0.0047
     26 C         142.5530  140.0328  169.1038 C.3     1  UNL1        0.0047
     27 C         139.1730  143.2444  164.9496 C.3     1  UNL1        0.0403
     28 C         137.9754  144.1322  164.7832 C.3     1  UNL1        0.0063
     29 C         137.9069  142.6938  164.3632 C.3     1  UNL1        0.0063
@<TRIPOS>BOND
     1     2     3    1
     2     3     4    1
     3     4     5    1
     4     5     6    1
     5     6     1    1
     6     1    16    1
     7    16    17    1
     8    17    18    1
     9    18    19   ar
    10    19    20   ar
    11    20    24    1
    12    24    25    1
    13    25    26    1
    14    20    21   ar
    15    21    22   ar
    16    22    27    1
    17    27    28    1
    18    28    29    1
    19    22    23   ar
    20     6     9    1
    21     9    10   ar
    22    10    11   ar
    23    11    12   ar
    24    12    13    1
    25    12    14   ar
    26    14    15   ar
    27     6     7    1
    28     7     8    1
    29     8     3    1
    30    23    18   ar
    31    15     9   ar
    32    26    24    1
    33    29    27    1
@<TRIPOS>MOLECULE
*****
 29 33 0 0 0
SMALL
GASTEIGER

@<TRIPOS>ATOM
      1 C         142.6595  142.3324  165.5732 C.3     1  UNL1        0.1467
      2 C         141.6759  141.6134  171.1730 C.3     1  UNL1        0.0896
      3 N         141.6964  141.8907  169.6990 N.3     1  UNL1       -0.2715
      4 C         140.4854  142.4673  169.0274 C.3     1  UNL1        0.0725
      5 C         140.5059  142.7446  167.5534 C.3     1  UNL1        0.0238
      6 C         141.7374  142.4452  166.7510 C.3     1  UNL1        0.0489
      7 C         142.9483  141.8685  167.4226 C.3     1  UNL1        0.0238
      8 C         142.9278  141.5913  168.8966 C.3     1  UNL1        0.0725
      9 C         140.8466  142.9827  165.6703 C.ar    1  UNL1       -0.0202
     10 C         139.3827  142.6561  165.6735 C.ar    1  UNL1       -0.0019
     11 C         138.4919  143.1935  164.5929 C.ar    1  UNL1        0.0293
     12 C         139.0652  144.0576  163.5091 C.ar    1  UNL1        0.1401
     13 F         138.1745  144.5951  162.4285 F       1  UNL1       -0.2042
     14 C         140.5292  144.3843  163.5059 C.ar    1  UNL1        0.0293
     15 C         141.4200  143.8468  164.5865 C.ar    1  UNL1       -0.0019
     16 O         143.4468  141.0745  165.3549 O.3     1  UNL1       -0.3470
     17 C         142.9410  140.0282  164.4064 C.3     1  UNL1        0.1874
     18 C         141.4666  139.8713  164.1797 C.ar    1  UNL1        0.0881
     19 C         140.8451  140.3747  162.9107 C.ar    1  UNL1        0.0130
     20 C         139.3706  140.2177  162.6841 C.ar    1  UNL1       -0.0201
     21 C         138.5177  139.5575  163.7264 C.ar    1  UNL1        0.0104
     22 C         139.1391  139.0541  164.9955 C.ar    1  UNL1        0.0580
     23 N         140.6136  139.2110  165.2221 N.ar    1  UNL1       -0.2515
     24 C         138.7491  140.7211  161.4150 C.3     1  UNL1        0.0224
     25 C         138.0352  140.4538  160.1232 C.3     1  UNL1        0.0047
     26 C         138.3864  141.8602  160.5089 C.3     1  UNL1        0.0047
     27 C         138.2862  138.3939  166.0378 C.3     1  UNL1        0.0403
     28 C         137.6460  137.1600  166.6017 C.3     1  UNL1        0.0063
     29 C         137.4489  138.4839  167.2791 C.3     1  UNL1        0.0063
@<TRIPOS>BOND
     1     2     3    1
     2     3     4    1
     3     4     5    1
     4     5     6    1
     5     6     1    1
     6     1    16    1
     7    16    17    1
     8    17    18    1
     9    18    19   ar
    10    19    20   ar
    11    20    24    1
    12    24    25    1
    13    25    26    1
    14    20    21   ar
    15    21    22   ar
    16    22    27    1
    17    27    28    1
    18    28    29    1
    19    22    23   ar
    20     6     9    1
    21     9    10   ar
    22    10    11   ar
    23    11    12   ar
    24    12    13    1
    25    12    14   ar
    26    14    15   ar
    27     6     7    1
    28     7     8    1
    29     8     3    1
    30    23    18   ar
    31    15     9   ar
    32    26    24    1
    33    29    27    1
@<TRIPOS>MOLECULE
*****
 29 33 0 0 0
SMALL
GASTEIGER

@<TRIPOS>ATOM
      1 C         140.5751  143.5505  162.5396 C.3     1  UNL1        0.1467
      2 C         140.2559  138.7021  159.5011 C.3     1  UNL1        0.0896
      3 N         140.5536  139.8733  160.3897 N.3     1  UNL1       -0.2715
      4 C         141.7829  139.8692  161.2492 C.3     1  UNL1        0.0725
      5 C         142.0806  141.0404  162.1378 C.3     1  UNL1        0.0238
      6 C         141.1490  142.2156  162.1670 C.3     1  UNL1        0.0489
      7 C         139.9197  142.2197  161.3075 C.3     1  UNL1        0.0238
      8 C         139.6220  141.0485  160.4189 C.3     1  UNL1        0.0725
      9 C         142.1790  142.6752  163.1559 C.ar    1  UNL1       -0.0202
     10 C         142.6326  144.1049  163.1567 C.ar    1  UNL1       -0.0019
     11 C         143.6626  144.5645  164.1455 C.ar    1  UNL1        0.0293
     12 C         144.2390  143.5942  165.1336 C.ar    1  UNL1        0.1401
     13 F         145.2691  144.0538  166.1225 F       1  UNL1       -0.2042
     14 C         143.7855  142.1645  165.1329 C.ar    1  UNL1        0.0293
     15 C         142.7555  141.7049  164.1440 C.ar    1  UNL1       -0.0019
     16 O         139.1394  143.6586  162.9603 O.3     1  UNL1       -0.3470
     17 C         138.7897  143.7570  164.4157 C.3     1  UNL1        0.1874
     18 C         139.2670  142.7067  165.3744 C.ar    1  UNL1        0.0881
     19 C         140.3104  143.0440  166.3979 C.ar    1  UNL1        0.0130
     20 C         140.7877  141.9936  167.3565 C.ar    1  UNL1       -0.0201
     21 C         140.2216  140.6061  167.2917 C.ar    1  UNL1        0.0104
     22 C         139.1781  140.2688  166.2682 C.ar    1  UNL1        0.0580
     23 N         138.7008  141.3191  165.3095 N.ar    1  UNL1       -0.2515
     24 C         141.8312  142.3308  168.3801 C.3     1  UNL1        0.0224
     25 C         143.2615  142.3134  168.8314 C.3     1  UNL1        0.0047
     26 C         142.2080  142.9323  169.7015 C.3     1  UNL1        0.0047
     27 C         138.6121  138.8813  166.2034 C.3     1  UNL1        0.0403
     28 C         137.6596  137.8416  166.7156 C.3     1  UNL1        0.0063
     29 C         138.5838  137.5176  165.5793 C.3     1  UNL1        0.0063
@<TRIPOS>BOND
     1     2     3    1
     2     3     4    1
     3     4     5    1
     4     5     6    1
     5     6     1    1
     6     1    16    1
     7    16    17    1
     8    17    18    1
     9    18    19   ar
    10    19    20   ar
    11    20    24    1
    12    24    25    1
    13    25    26    1
    14    20    21   ar
    15    21    22   ar
    16    22    27    1
    17    27    28    1
    18    28    29    1
    19    22    23   ar
    20     6     9    1
    21     9    10   ar
    22    10    11   ar
    23    11    12   ar
    24    12    13    1
    25    12    14   ar
    26    14    15   ar
    27     6     7    1
    28     7     8    1
    29     8     3    1
    30    23    18   ar
    31    15     9   ar
    32    26    24    1
    33    29    27    1
@<TRIPOS>MOLECULE
*****
 29 33 0 0 0
SMALL
GASTEIGER

@<TRIPOS>ATOM
      1 C         140.3747  145.0108  162.2364 C.3     1  UNL1        0.1467
      2 C         141.6041  144.8597  156.6410 C.3     1  UNL1        0.0896
      3 N         141.4726  144.7339  158.1300 N.3     1  UNL1       -0.2715
      4 C         142.3961  143.8292  158.8906 C.3     1  UNL1        0.0725
      5 C         142.2646  143.7034  160.3796 C.3     1  UNL1        0.0238
      6 C         141.2097  144.4823  161.1078 C.3     1  UNL1        0.0489
      7 C         140.2862  145.3870  160.3471 C.3     1  UNL1        0.0238
      8 C         140.4177  145.5128  158.8582 C.3     1  UNL1        0.0725
      9 C         141.8432  143.7611  162.2605 C.ar    1  UNL1       -0.0202
     10 C         141.8953  142.2621  162.2699 C.ar    1  UNL1       -0.0019
     11 C         142.5287  141.5408  163.4225 C.ar    1  UNL1        0.0293
     12 C         143.1102  142.3187  164.5657 C.ar    1  UNL1        0.1401
     13 F         143.7437  141.5975  165.7183 F       1  UNL1       -0.2042
     14 C         143.0581  143.8178  164.5563 C.ar    1  UNL1        0.0293
     15 C         142.4246  144.5390  163.4036 C.ar    1  UNL1       -0.0019
     16 O         138.8782  144.9876  162.1368 O.3     1  UNL1       -0.3470
     17 C         138.0634  144.3622  163.2301 C.3     1  UNL1        0.1874
     18 C         138.6204  143.2130  164.0168 C.ar    1  UNL1        0.0881
     19 C         139.3136  143.4642  165.3231 C.ar    1  UNL1        0.0130
     20 C         139.8705  142.3149  166.1097 C.ar    1  UNL1       -0.0201
     21 C         139.7343  140.9144  165.5902 C.ar    1  UNL1        0.0104
     22 C         139.0411  140.6631  164.2838 C.ar    1  UNL1        0.0580
     23 N         138.4841  141.8124  163.4972 N.ar    1  UNL1       -0.2515
     24 C         140.5638  142.5660  167.4160 C.3     1  UNL1        0.0224
     25 C         141.7935  142.4836  168.2709 C.3     1  UNL1        0.0047
     26 C         140.5347  143.0835  168.8236 C.3     1  UNL1        0.0047
     27 C         138.9048  139.2626  163.7643 C.3     1  UNL1        0.0403
     28 C         138.5998  138.3183  162.6394 C.3     1  UNL1        0.0063
     29 C         138.9738  137.7812  163.9891 C.3     1  UNL1        0.0063
@<TRIPOS>BOND
     1     2     3    1
     2     3     4    1
     3     4     5    1
     4     5     6    1
     5     6     1    1
     6     1    16    1
     7    16    17    1
     8    17    18    1
     9    18    19   ar
    10    19    20   ar
    11    20    24    1
    12    24    25    1
    13    25    26    1
    14    20    21   ar
    15    21    22   ar
    16    22    27    1
    17    27    28    1
    18    28    29    1
    19    22    23   ar
    20     6     9    1
    21     9    10   ar
    22    10    11   ar
    23    11    12   ar
    24    12    13    1
    25    12    14   ar
    26    14    15   ar
    27     6     7    1
    28     7     8    1
    29     8     3    1
    30    23    18   ar
    31    15     9   ar
    32    26    24    1
    33    29    27    1
