@<TRIPOS>MOLECULE
*****
 38 40 0 0 0
SMALL
GASTEIGER

@<TRIPOS>ATOM
      1 N         143.2456  140.7495  166.1064 N.am    1  UNL1       -0.2890
      2 C         142.3337  141.2275  165.0154 C.2     1  UNL1        0.3040
      3 O         141.1254  140.4214  164.6410 O.2     1  UNL1       -0.2526
      4 N         142.6301  142.5116  164.2990 N.am    1  UNL1       -0.2641
      5 C         143.8385  143.3177  164.6735 C.3     1  UNL1        0.0949
      6 C         144.1349  144.6017  163.9570 C.3     1  UNL1        0.0217
      7 C         143.2230  145.0797  162.8661 C.3     1  UNL1        0.0061
      8 C         142.0148  144.2736  162.4916 C.3     1  UNL1        0.0485
      9 C         141.7183  142.9895  163.2081 C.3     1  UNL1        0.0975
     10 H         144.0386  141.2786  166.3521 H       1  UNL1        0.1510
     11 C         141.1030  144.7516  161.4007 C.3     1  UNL1        0.1085
     12 O         142.2940  145.1198  160.5666 O.3     1  UNL1       -0.3826
     13 H         143.0544  145.2875  161.1450 H       1  UNL1        0.2107
     14 C         139.9119  144.3833  162.2349 C.ar    1  UNL1        0.0026
     15 C         138.8940  143.4179  161.7040 C.ar    1  UNL1       -0.0020
     16 C         137.7030  143.0496  162.5382 C.ar    1  UNL1        0.0006
     17 C         137.5299  143.6468  163.9033 C.ar    1  UNL1        0.0114
     18 C         138.5478  144.6122  164.4342 C.ar    1  UNL1        0.0574
     19 CL        138.3746  145.2093  165.7993 Cl      1  UNL1       -0.0823
     20 C         139.7388  144.9804  163.6000 C.ar    1  UNL1        0.0094
     21 C         140.1910  145.2295  160.3098 C.3     1  UNL1        0.0313
     22 C         140.6976  145.3367  158.9021 C.3     1  UNL1        0.0053
     23 C         139.8817  146.0478  157.8635 C.3     1  UNL1        0.0322
     24 C         140.1259  145.7833  156.4073 C.3     1  UNL1        0.1423
     25 O         139.8397  146.8505  155.3929 O.3     1  UNL1       -0.3511
     26 C         138.9364  147.9956  155.7434 C.3     1  UNL1        0.1741
     27 C         142.9491  139.4655  166.8228 C.3     1  UNL1        0.0887
     28 C         143.2137  138.1520  166.1484 C.3     1  UNL1        0.0884
     29 C         141.3014  137.1651  164.6927 C.3     1  UNL1        0.0859
     30 N         142.6217  137.8688  164.7995 N.3     1  UNL1       -0.2949
     31 H         142.5149  138.7681  164.3302 H       1  UNL1        0.1233
     32 C         142.3882  139.4949  168.2136 C.3     1  UNL1        0.0210
     33 C         142.0448  140.8060  168.8563 C.3     1  UNL1        0.0017
     34 C         143.0813  141.5479  169.6471 C.3     1  UNL1        0.0001
     35 C         142.7379  142.8590  170.2897 C.3     1  UNL1        0.0000
     36 C         141.3581  143.4282  170.1417 C.3     1  UNL1        0.0000
     37 C         140.3216  142.6864  169.3509 C.3     1  UNL1        0.0000
     38 C         140.6650  141.3753  168.7083 C.3     1  UNL1        0.0001
@<TRIPOS>BOND
     1    29    30    1
     2    30    28    1
     3    27    28    1
     4    27    32    1
     5    32    33    1
     6    33    34    1
     7    34    35    1
     8    35    36    1
     9    36    37    1
    10    37    38    1
    11    27     1    1
    12     1     2   am
    13     2     3    2
    14     2     4   am
    15     4     5    1
    16     5     6    1
    17     6     7    1
    18     8     7    1
    19     8    11    1
    20    11    12    1
    21    11    21    1
    22    21    22    1
    23    22    23    1
    24    23    24    1
    25    24    25    1
    26    25    26    1
    27    11    14    1
    28    14    15   ar
    29    15    16   ar
    30    16    17   ar
    31    17    18   ar
    32    18    19    1
    33    18    20   ar
    34     8     9    1
    35    38    33    1
    36     9     4    1
    37    20    14   ar
    38    30    31    1
    39     1    10    1
    40    12    13    1
@<TRIPOS>MOLECULE
*****
 38 40 0 0 0
SMALL
GASTEIGER

@<TRIPOS>ATOM
      1 N         139.6655  144.4277  159.9750 N.am    1  UNL1       -0.2890
      2 C         139.6142  143.2055  160.8432 C.2     1  UNL1        0.3040
      3 O         139.8031  141.8466  160.2371 O.2     1  UNL1       -0.2526
      4 N         139.3738  143.3424  162.3175 N.am    1  UNL1       -0.2641
      5 C         139.1848  144.7015  162.9236 C.3     1  UNL1        0.0949
      6 C         138.9445  144.8383  164.3978 C.3     1  UNL1        0.0217
      7 C         138.8931  143.6161  165.2660 C.3     1  UNL1        0.0061
      8 C         139.0821  142.2571  164.6599 C.3     1  UNL1        0.0485
      9 C         139.3224  142.1203  163.1856 C.3     1  UNL1        0.0975
     10 H         139.5415  145.3197  160.3728 H       1  UNL1        0.1510
     11 C         139.0307  141.0350  165.5281 C.3     1  UNL1        0.1085
     12 O         137.7139  140.6566  164.9175 O.3     1  UNL1       -0.3826
     13 H         137.2745  141.4520  164.5779 H       1  UNL1        0.2107
     14 C         140.3475  141.4134  166.1386 C.ar    1  UNL1        0.0026
     15 C         141.6164  141.2254  165.3611 C.ar    1  UNL1       -0.0020
     16 C         142.9332  141.6038  165.9718 C.ar    1  UNL1        0.0006
     17 C         142.9811  142.1702  167.3599 C.ar    1  UNL1        0.0114
     18 C         141.7122  142.3582  168.1374 C.ar    1  UNL1        0.0574
     19 CL        141.7601  142.9246  169.5256 Cl      1  UNL1       -0.0823
     20 C         140.3954  141.9798  167.5268 C.ar    1  UNL1        0.0094
     21 C         138.9793  139.8129  166.3963 C.3     1  UNL1        0.0313
     22 C         138.6462  138.4795  165.7954 C.3     1  UNL1        0.0053
     23 C         139.5030  137.9148  164.7014 C.3     1  UNL1        0.0322
     24 C         138.9234  137.6872  163.3367 C.3     1  UNL1        0.1423
     25 O         138.1136  138.7635  162.6767 O.3     1  UNL1       -0.3511
     26 C         138.1154  138.8938  161.1823 C.3     1  UNL1        0.1741
     27 C         139.9059  144.2909  158.5007 C.3     1  UNL1        0.0887
     28 C         139.1359  143.2781  157.7061 C.3     1  UNL1        0.0884
     29 C         140.3054  142.0888  155.7143 C.3     1  UNL1        0.0859
     30 N         139.8367  142.0792  157.1391 N.3     1  UNL1       -0.2949
     31 H         140.6603  141.9181  157.7189 H       1  UNL1        0.1233
     32 C         140.9162  145.1668  157.8210 C.3     1  UNL1        0.0210
     33 C         140.5117  146.0050  156.6447 C.3     1  UNL1        0.0017
     34 C         141.1863  145.8121  155.3189 C.3     1  UNL1        0.0001
     35 C         140.7817  146.6503  154.1426 C.3     1  UNL1        0.0000
     36 C         139.7026  147.6814  154.2921 C.3     1  UNL1        0.0000
     37 C         139.0280  147.8743  155.6179 C.3     1  UNL1        0.0000
     38 C         139.4326  147.0361  156.7942 C.3     1  UNL1        0.0001
@<TRIPOS>BOND
     1    29    30    1
     2    30    28    1
     3    27    28    1
     4    27    32    1
     5    32    33    1
     6    33    34    1
     7    34    35    1
     8    35    36    1
     9    36    37    1
    10    37    38    1
    11    27     1    1
    12     1     2   am
    13     2     3    2
    14     2     4   am
    15     4     5    1
    16     5     6    1
    17     6     7    1
    18     8     7    1
    19     8    11    1
    20    11    12    1
    21    11    21    1
    22    21    22    1
    23    22    23    1
    24    23    24    1
    25    24    25    1
    26    25    26    1
    27    11    14    1
    28    14    15   ar
    29    15    16   ar
    30    16    17   ar
    31    17    18   ar
    32    18    19    1
    33    18    20   ar
    34     8     9    1
    35    38    33    1
    36     9     4    1
    37    20    14   ar
    38    30    31    1
    39     1    10    1
    40    12    13    1
@<TRIPOS>MOLECULE
*****
 38 40 0 0 0
SMALL
GASTEIGER

@<TRIPOS>ATOM
      1 N         139.7936  144.1964  160.9713 N.am    1  UNL1       -0.2890
      2 C         140.5294  143.2036  161.8217 C.2     1  UNL1        0.3040
      3 O         141.4648  142.2187  161.1854 O.2     1  UNL1       -0.2526
      4 N         140.3296  143.1958  163.3083 N.am    1  UNL1       -0.2641
      5 C         139.3941  144.1808  163.9445 C.3     1  UNL1        0.0949
      6 C         139.1943  144.1729  165.4311 C.3     1  UNL1        0.0217
      7 C         139.9300  143.1801  166.2815 C.3     1  UNL1        0.0061
      8 C         140.8655  142.1952  165.6453 C.3     1  UNL1        0.0485
      9 C         141.0652  142.2030  164.1587 C.3     1  UNL1        0.0975
     10 H         139.1797  144.8429  161.3889 H       1  UNL1        0.1510
     11 C         141.6011  141.2024  166.4957 C.3     1  UNL1        0.1085
     12 O         142.4839  142.2994  167.0126 O.3     1  UNL1       -0.3826
     13 H         142.5149  143.0214  166.3656 H       1  UNL1        0.2107
     14 C         140.7183  140.1054  165.9787 C.ar    1  UNL1        0.0026
     15 C         139.2588  140.0915  166.3245 C.ar    1  UNL1       -0.0020
     16 C         138.3760  138.9944  165.8074 C.ar    1  UNL1        0.0006
     17 C         138.9528  137.9114  164.9448 C.ar    1  UNL1        0.0114
     18 C         140.4123  137.9253  164.5990 C.ar    1  UNL1        0.0574
     19 CL        140.9891  136.8422  163.7362 Cl      1  UNL1       -0.0823
     20 C         141.2951  139.0223  165.1159 C.ar    1  UNL1        0.0094
     21 C         142.3368  140.2096  167.3461 C.3     1  UNL1        0.0313
     22 C         142.4770  140.4436  168.8210 C.3     1  UNL1        0.0053
     23 C         141.5763  139.7272  169.7830 C.3     1  UNL1        0.0322
     24 C         140.1574  140.1802  169.9612 C.3     1  UNL1        0.1423
     25 O         139.7470  141.5531  169.5180 O.3     1  UNL1       -0.3511
     26 C         140.0054  142.7358  170.4038 C.3     1  UNL1        0.1741
     27 C         139.9934  144.2043  159.4847 C.3     1  UNL1        0.0887
     28 C         139.2625  143.2164  158.6245 C.3     1  UNL1        0.0884
     29 C         138.7592  140.6682  158.5692 C.3     1  UNL1        0.0859
     30 N         139.7444  141.7987  158.5352 N.3     1  UNL1       -0.2949
     31 H         140.2566  141.7166  157.6570 H       1  UNL1        0.1233
     32 C         140.9241  145.1999  158.8582 C.3     1  UNL1        0.0210
     33 C         140.6482  145.7195  157.4783 C.3     1  UNL1        0.0017
     34 C         139.5153  146.6754  157.2494 C.3     1  UNL1        0.0001
     35 C         139.2395  147.1949  155.8695 C.3     1  UNL1        0.0000
     36 C         140.0967  146.7584  154.7186 C.3     1  UNL1        0.0000
     37 C         141.2297  145.8024  154.9475 C.3     1  UNL1        0.0000
     38 C         141.5054  145.2829  156.3274 C.3     1  UNL1        0.0001
@<TRIPOS>BOND
     1    29    30    1
     2    30    28    1
     3    27    28    1
     4    27    32    1
     5    32    33    1
     6    33    34    1
     7    34    35    1
     8    35    36    1
     9    36    37    1
    10    37    38    1
    11    27     1    1
    12     1     2   am
    13     2     3    2
    14     2     4   am
    15     4     5    1
    16     5     6    1
    17     6     7    1
    18     8     7    1
    19     8    11    1
    20    11    12    1
    21    11    21    1
    22    21    22    1
    23    22    23    1
    24    23    24    1
    25    24    25    1
    26    25    26    1
    27    11    14    1
    28    14    15   ar
    29    15    16   ar
    30    16    17   ar
    31    17    18   ar
    32    18    19    1
    33    18    20   ar
    34     8     9    1
    35    38    33    1
    36     9     4    1
    37    20    14   ar
    38    30    31    1
    39     1    10    1
    40    12    13    1
@<TRIPOS>MOLECULE
*****
 38 40 0 0 0
SMALL
GASTEIGER

@<TRIPOS>ATOM
      1 N         140.0315  144.1513  161.2867 N.am    1  UNL1       -0.2890
      2 C         140.7544  143.1486  162.1367 C.2     1  UNL1        0.3040
      3 O         141.7015  142.1728  161.5037 O.2     1  UNL1       -0.2526
      4 N         140.5299  143.1219  163.6195 N.am    1  UNL1       -0.2641
      5 C         139.5827  144.0978  164.2524 C.3     1  UNL1        0.0949
      6 C         139.3582  144.0710  165.7353 C.3     1  UNL1        0.0217
      7 C         140.0811  143.0684  166.5853 C.3     1  UNL1        0.0061
      8 C         141.0282  142.0926  165.9524 C.3     1  UNL1        0.0485
      9 C         141.2527  142.1193  164.4695 C.3     1  UNL1        0.0975
     10 H         139.4099  144.7917  161.7021 H       1  UNL1        0.1510
     11 C         141.7510  141.0901  166.8023 C.3     1  UNL1        0.1085
     12 O         142.6556  142.1732  167.3107 O.3     1  UNL1       -0.3826
     13 H         142.6957  142.8923  166.6610 H       1  UNL1        0.2107
     14 C         140.8464  140.0069  166.2940 C.ar    1  UNL1        0.0026
     15 C         139.4067  139.9736  166.7137 C.ar    1  UNL1       -0.0020
     16 C         138.5021  138.8904  166.2053 C.ar    1  UNL1        0.0006
     17 C         139.0372  137.8406  165.2772 C.ar    1  UNL1        0.0114
     18 C         140.4769  137.8739  164.8574 C.ar    1  UNL1        0.0574
     19 CL        141.0120  136.8239  163.9293 Cl      1  UNL1       -0.0823
     20 C         141.3815  138.9570  165.3658 C.ar    1  UNL1        0.0094
     21 C         142.4738  140.0874  167.6523 C.3     1  UNL1        0.0313
     22 C         142.5029  140.2502  169.1431 C.3     1  UNL1        0.0053
     23 C         141.5055  139.5244  169.9965 C.3     1  UNL1        0.0322
     24 C         140.2505  140.2176  170.4376 C.3     1  UNL1        0.1423
     25 O         139.8500  141.5177  169.8056 O.3     1  UNL1       -0.3511
     26 C         140.0782  142.8082  170.5356 C.3     1  UNL1        0.1741
     27 C         140.2560  144.1780  159.8038 C.3     1  UNL1        0.0887
     28 C         141.3747  144.9955  159.2292 C.3     1  UNL1        0.0884
     29 C         142.8412  143.7579  157.4779 C.3     1  UNL1        0.0859
     30 N         142.6678  144.3362  158.8509 N.3     1  UNL1       -0.2949
     31 H         143.4009  145.0353  158.9707 H       1  UNL1        0.1233
     32 C         139.3617  143.3873  158.8955 C.3     1  UNL1        0.0210
     33 C         139.3872  141.8880  158.9371 C.3     1  UNL1        0.0017
     34 C         138.4346  141.1461  159.8271 C.3     1  UNL1        0.0001
     35 C         138.4601  139.6469  159.8686 C.3     1  UNL1        0.0000
     36 C         139.4381  138.8897  159.0200 C.3     1  UNL1        0.0000
     37 C         140.3907  139.6316  158.1300 C.3     1  UNL1        0.0000
     38 C         140.3652  141.1307  158.0885 C.3     1  UNL1        0.0001
@<TRIPOS>BOND
     1    29    30    1
     2    30    28    1
     3    27    28    1
     4    27    32    1
     5    32    33    1
     6    33    34    1
     7    34    35    1
     8    35    36    1
     9    36    37    1
    10    37    38    1
    11    27     1    1
    12     1     2   am
    13     2     3    2
    14     2     4   am
    15     4     5    1
    16     5     6    1
    17     6     7    1
    18     8     7    1
    19     8    11    1
    20    11    12    1
    21    11    21    1
    22    21    22    1
    23    22    23    1
    24    23    24    1
    25    24    25    1
    26    25    26    1
    27    11    14    1
    28    14    15   ar
    29    15    16   ar
    30    16    17   ar
    31    17    18   ar
    32    18    19    1
    33    18    20   ar
    34     8     9    1
    35    38    33    1
    36     9     4    1
    37    20    14   ar
    38    30    31    1
    39     1    10    1
    40    12    13    1
@<TRIPOS>MOLECULE
*****
 38 40 0 0 0
SMALL
GASTEIGER

@<TRIPOS>ATOM
      1 N         143.8622  142.7458  160.3548 N.am    1  UNL1       -0.2890
      2 C         142.9069  142.1102  161.3210 C.2     1  UNL1        0.3040
      3 O         141.8042  141.2282  160.8149 O.2     1  UNL1       -0.2526
      4 N         143.0543  142.3567  162.7932 N.am    1  UNL1       -0.2641
      5 C         144.1571  143.2387  163.2993 C.3     1  UNL1        0.0949
      6 C         144.3045  143.4852  164.7715 C.3     1  UNL1        0.0217
      7 C         143.3492  142.8496  165.7377 C.3     1  UNL1        0.0061
      8 C         142.2465  141.9676  165.2317 C.3     1  UNL1        0.0485
      9 C         142.0991  141.7212  163.7594 C.3     1  UNL1        0.0975
     10 H         144.5859  143.3247  160.6869 H       1  UNL1        0.1510
     11 C         141.2913  141.3321  166.1979 C.3     1  UNL1        0.1085
     12 O         142.4171  140.5342  166.7860 O.3     1  UNL1       -0.3826
     13 H         143.1200  140.4313  166.1256 H       1  UNL1        0.2107
     14 C         140.1656  142.1300  165.6097 C.ar    1  UNL1        0.0026
     15 C         140.0356  143.5903  165.9267 C.ar    1  UNL1       -0.0020
     16 C         138.9097  144.3882  165.3385 C.ar    1  UNL1        0.0006
     17 C         137.9139  143.7257  164.4333 C.ar    1  UNL1        0.0114
     18 C         138.0439  142.2654  164.1162 C.ar    1  UNL1        0.0574
     19 CL        137.0480  141.6029  163.2110 Cl      1  UNL1       -0.0823
     20 C         139.1697  141.4675  164.7044 C.ar    1  UNL1        0.0094
     21 C         140.3360  140.6966  167.1641 C.3     1  UNL1        0.0313
     22 C         140.5427  140.8606  168.6407 C.3     1  UNL1        0.0053
     23 C         139.9785  142.0565  169.3486 C.3     1  UNL1        0.0322
     24 C         140.8358  143.2659  169.5779 C.3     1  UNL1        0.1423
     25 O         141.9635  143.2096  170.5654 O.3     1  UNL1       -0.3511
     26 C         143.3254  142.7622  170.1237 C.3     1  UNL1        0.1741
     27 C         143.7147  142.4993  158.8825 C.3     1  UNL1        0.0887
     28 C         142.9186  143.4505  158.0389 C.3     1  UNL1        0.0884
     29 C         142.0679  145.8802  157.6890 C.3     1  UNL1        0.0859
     30 N         142.4751  144.7660  158.6069 N.3     1  UNL1       -0.2949
     31 H         141.6742  144.5721  159.2081 H       1  UNL1        0.1233
     32 C         144.3634  141.3018  158.2539 C.3     1  UNL1        0.0210
     33 C         145.3024  141.4781  157.0974 C.3     1  UNL1        0.0017
     34 C         145.0950  140.6926  155.8365 C.3     1  UNL1        0.0001
     35 C         146.0340  140.8688  154.6802 C.3     1  UNL1        0.0000
     36 C         147.1803  141.8305  154.7847 C.3     1  UNL1        0.0000
     37 C         147.3877  142.6160  156.0456 C.3     1  UNL1        0.0000
     38 C         146.4487  142.4398  157.2020 C.3     1  UNL1        0.0001
@<TRIPOS>BOND
     1    29    30    1
     2    30    28    1
     3    27    28    1
     4    27    32    1
     5    32    33    1
     6    33    34    1
     7    34    35    1
     8    35    36    1
     9    36    37    1
    10    37    38    1
    11    27     1    1
    12     1     2   am
    13     2     3    2
    14     2     4   am
    15     4     5    1
    16     5     6    1
    17     6     7    1
    18     8     7    1
    19     8    11    1
    20    11    12    1
    21    11    21    1
    22    21    22    1
    23    22    23    1
    24    23    24    1
    25    24    25    1
    26    25    26    1
    27    11    14    1
    28    14    15   ar
    29    15    16   ar
    30    16    17   ar
    31    17    18   ar
    32    18    19    1
    33    18    20   ar
    34     8     9    1
    35    38    33    1
    36     9     4    1
    37    20    14   ar
    38    30    31    1
    39     1    10    1
    40    12    13    1
@<TRIPOS>MOLECULE
*****
 38 40 0 0 0
SMALL
GASTEIGER

@<TRIPOS>ATOM
      1 N         142.2683  144.6841  160.4328 N.am    1  UNL1       -0.2890
      2 C         142.2134  143.4271  161.2497 C.2     1  UNL1        0.3040
      3 O         141.5295  142.2082  160.7053 O.2     1  UNL1       -0.2526
      4 N         142.8423  143.3893  162.6110 N.am    1  UNL1       -0.2641
      5 C         143.5262  144.6084  163.1553 C.3     1  UNL1        0.0949
      6 C         144.1551  144.5706  164.5166 C.3     1  UNL1        0.0217
      7 C         144.1001  143.3136  165.3335 C.3     1  UNL1        0.0061
      8 C         143.4163  142.0947  164.7891 C.3     1  UNL1        0.0485
      9 C         142.7874  142.1325  163.4278 C.3     1  UNL1        0.0975
     10 H         142.7171  145.4841  160.7901 H       1  UNL1        0.1510
     11 C         143.3614  140.8378  165.6060 C.3     1  UNL1        0.1085
     12 O         144.2658  140.1582  164.6211 O.3     1  UNL1       -0.3826
     13 H         144.1842  140.5895  163.7561 H       1  UNL1        0.2107
     14 C         142.4570  141.5175  166.5909 C.ar    1  UNL1        0.0026
     15 C         141.0356  141.8200  166.2191 C.ar    1  UNL1       -0.0020
     16 C         140.1312  142.4997  167.2041 C.ar    1  UNL1        0.0006
     17 C         140.6481  142.8768  168.5607 C.ar    1  UNL1        0.0114
     18 C         142.0695  142.5743  168.9325 C.ar    1  UNL1        0.0574
     19 CL        142.5864  142.9515  170.2892 Cl      1  UNL1       -0.0823
     20 C         142.9739  141.8947  167.9476 C.ar    1  UNL1        0.0094
     21 C         143.3065  139.5810  166.4229 C.3     1  UNL1        0.0313
     22 C         142.9174  138.2838  165.7781 C.3     1  UNL1        0.0053
     23 C         141.6804  138.2076  164.9332 C.3     1  UNL1        0.0322
     24 C         141.7869  137.8646  163.4768 C.3     1  UNL1        0.1423
     25 O         142.6660  138.6809  162.5763 O.3     1  UNL1       -0.3511
     26 C         143.7079  138.0072  161.7334 C.3     1  UNL1        0.1741
     27 C         141.6394  144.7219  159.0716 C.3     1  UNL1        0.0887
     28 C         140.1570  144.9062  158.9351 C.3     1  UNL1        0.0884
     29 C         138.8759  142.7638  158.2150 C.3     1  UNL1        0.0859
     30 N         139.2272  143.7762  159.2646 N.3     1  UNL1       -0.2949
     31 H         139.6496  143.2634  160.0386 H       1  UNL1        0.1233
     32 C         142.4928  144.5754  157.8468 C.3     1  UNL1        0.0210
     33 C         142.9798  143.2193  157.4297 C.3     1  UNL1        0.0017
     34 C         144.2307  142.6531  158.0336 C.3     1  UNL1        0.0001
     35 C         144.7175  141.2971  157.6165 C.3     1  UNL1        0.0000
     36 C         143.9535  140.5071  156.5956 C.3     1  UNL1        0.0000
     37 C         142.7026  141.0733  155.9917 C.3     1  UNL1        0.0000
     38 C         142.2157  142.4293  156.4088 C.3     1  UNL1        0.0001
@<TRIPOS>BOND
     1    29    30    1
     2    30    28    1
     3    27    28    1
     4    27    32    1
     5    32    33    1
     6    33    34    1
     7    34    35    1
     8    35    36    1
     9    36    37    1
    10    37    38    1
    11    27     1    1
    12     1     2   am
    13     2     3    2
    14     2     4   am
    15     4     5    1
    16     5     6    1
    17     6     7    1
    18     8     7    1
    19     8    11    1
    20    11    12    1
    21    11    21    1
    22    21    22    1
    23    22    23    1
    24    23    24    1
    25    24    25    1
    26    25    26    1
    27    11    14    1
    28    14    15   ar
    29    15    16   ar
    30    16    17   ar
    31    17    18   ar
    32    18    19    1
    33    18    20   ar
    34     8     9    1
    35    38    33    1
    36     9     4    1
    37    20    14   ar
    38    30    31    1
    39     1    10    1
    40    12    13    1
@<TRIPOS>MOLECULE
*****
 38 40 0 0 0
SMALL
GASTEIGER

@<TRIPOS>ATOM
      1 N         143.2835  140.5426  165.8397 N.am    1  UNL1       -0.2890
      2 C         142.3367  141.1045  164.8208 C.2     1  UNL1        0.3040
      3 O         141.1262  140.3202  164.4091 O.2     1  UNL1       -0.2526
      4 N         142.6005  142.4505  164.2138 N.am    1  UNL1       -0.2641
      5 C         143.8110  143.2348  164.6256 C.3     1  UNL1        0.0949
      6 C         144.0748  144.5809  164.0186 C.3     1  UNL1        0.0217
      7 C         143.1280  145.1427  162.9997 C.3     1  UNL1        0.0061
      8 C         141.9175  144.3585  162.5880 C.3     1  UNL1        0.0485
      9 C         141.6537  143.0124  163.1950 C.3     1  UNL1        0.0975
     10 H         144.0780  141.0574  166.1100 H       1  UNL1        0.1510
     11 C         140.9708  144.9203  161.5692 C.3     1  UNL1        0.1085
     12 O         142.1334  145.3283  160.7138 O.3     1  UNL1       -0.3826
     13 H         142.9187  145.4470  161.2707 H       1  UNL1        0.2107
     14 C         139.8081  144.5123  162.4246 C.ar    1  UNL1        0.0026
     15 C         138.7955  143.5385  161.8989 C.ar    1  UNL1       -0.0020
     16 C         137.6328  143.1305  162.7543 C.ar    1  UNL1        0.0006
     17 C         137.4828  143.6962  164.1354 C.ar    1  UNL1        0.0114
     18 C         138.4955  144.6700  164.6611 C.ar    1  UNL1        0.0574
     19 CL        138.3454  145.2357  166.0423 Cl      1  UNL1       -0.0823
     20 C         139.6581  145.0780  163.8057 C.ar    1  UNL1        0.0094
     21 C         140.0240  145.4821  160.5504 C.3     1  UNL1        0.0313
     22 C         140.4192  145.5281  159.1041 C.3     1  UNL1        0.0053
     23 C         139.9830  144.4366  158.1724 C.3     1  UNL1        0.0322
     24 C         140.1845  142.9999  158.5536 C.3     1  UNL1        0.1423
     25 O         140.2219  141.9405  157.4924 O.3     1  UNL1       -0.3511
     26 C         141.2694  140.8678  157.5400 C.3     1  UNL1        0.1741
     27 C         143.0197  139.1966  166.4467 C.3     1  UNL1        0.0887
     28 C         142.9074  137.9863  165.5676 C.3     1  UNL1        0.0884
     29 C         141.3897  137.2561  163.5894 C.3     1  UNL1        0.0859
     30 N         141.5668  137.5588  165.0478 N.3     1  UNL1       -0.2949
     31 H         141.3094  136.7135  165.5574 H       1  UNL1        0.1233
     32 C         142.8684  139.0606  167.9328 C.3     1  UNL1        0.0210
     33 C         141.6056  139.5152  168.6028 C.3     1  UNL1        0.0017
     34 C         140.3607  139.7257  167.7929 C.3     1  UNL1        0.0001
     35 C         139.0980  140.1803  168.4629 C.3     1  UNL1        0.0000
     36 C         139.0802  140.4244  169.9428 C.3     1  UNL1        0.0000
     37 C         140.3250  140.2139  170.7527 C.3     1  UNL1        0.0000
     38 C         141.5877  139.7593  170.0827 C.3     1  UNL1        0.0001
@<TRIPOS>BOND
     1    29    30    1
     2    30    28    1
     3    27    28    1
     4    27    32    1
     5    32    33    1
     6    33    34    1
     7    34    35    1
     8    35    36    1
     9    36    37    1
    10    37    38    1
    11    27     1    1
    12     1     2   am
    13     2     3    2
    14     2     4   am
    15     4     5    1
    16     5     6    1
    17     6     7    1
    18     8     7    1
    19     8    11    1
    20    11    12    1
    21    11    21    1
    22    21    22    1
    23    22    23    1
    24    23    24    1
    25    24    25    1
    26    25    26    1
    27    11    14    1
    28    14    15   ar
    29    15    16   ar
    30    16    17   ar
    31    17    18   ar
    32    18    19    1
    33    18    20   ar
    34     8     9    1
    35    38    33    1
    36     9     4    1
    37    20    14   ar
    38    30    31    1
    39     1    10    1
    40    12    13    1
@<TRIPOS>MOLECULE
*****
 38 40 0 0 0
SMALL
GASTEIGER

@<TRIPOS>ATOM
      1 N         139.9050  144.4988  159.9567 N.am    1  UNL1       -0.2890
      2 C         139.8479  143.2655  160.8087 C.2     1  UNL1        0.3040
      3 O         140.1558  141.9252  160.2097 O.2     1  UNL1       -0.2526
      4 N         139.4830  143.3726  162.2597 N.am    1  UNL1       -0.2641
      5 C         139.1752  144.7130  162.8587 C.3     1  UNL1        0.0949
      6 C         138.8102  144.8201  164.3097 C.3     1  UNL1        0.0217
      7 C         138.7532  143.5868  165.1617 C.3     1  UNL1        0.0061
      8 C         139.0610  142.2465  164.5627 C.3     1  UNL1        0.0485
      9 C         139.4259  142.1394  163.1117 C.3     1  UNL1        0.0975
     10 H         139.7030  145.3785  160.3498 H       1  UNL1        0.1510
     11 C         139.0039  141.0134  165.4147 C.3     1  UNL1        0.1085
     12 O         137.6979  140.6359  164.7808 O.3     1  UNL1       -0.3826
     13 H         137.2591  141.4331  164.4450 H       1  UNL1        0.2107
     14 C         140.3099  141.3908  166.0486 C.ar    1  UNL1        0.0026
     15 C         141.5927  141.1974  165.2956 C.ar    1  UNL1       -0.0020
     16 C         142.8987  141.5750  165.9295 C.ar    1  UNL1        0.0006
     17 C         142.9219  142.1458  167.3164 C.ar    1  UNL1        0.0114
     18 C         141.6391  142.3393  168.0694 C.ar    1  UNL1        0.0574
     19 CL        141.6624  142.9102  169.4564 Cl      1  UNL1       -0.0823
     20 C         140.3331  141.9618  167.4355 C.ar    1  UNL1        0.0094
     21 C         138.9468  139.7801  166.2668 C.3     1  UNL1        0.0313
     22 C         138.7716  138.4345  165.6277 C.3     1  UNL1        0.0053
     23 C         139.8910  137.8302  164.8329 C.3     1  UNL1        0.0322
     24 C         139.7734  137.7113  163.3422 C.3     1  UNL1        0.1423
     25 O         138.4196  137.6559  162.6987 O.3     1  UNL1       -0.3511
     26 C         137.9762  138.7623  161.7880 C.3     1  UNL1        0.1741
     27 C         140.2699  144.3917  158.5057 C.3     1  UNL1        0.0887
     28 C         139.2680  143.8741  157.5166 C.3     1  UNL1        0.0884
     29 C         139.8644  141.4827  156.6951 C.3     1  UNL1        0.0859
     30 N         138.9617  142.4070  157.4571 N.3     1  UNL1       -0.2949
     31 H         138.9414  142.0711  158.4200 H       1  UNL1        0.1233
     32 C         141.6367  144.8021  158.0438 C.3     1  UNL1        0.0210
     33 C         142.7073  143.7680  157.8571 C.3     1  UNL1        0.0017
     34 C         143.1050  143.3413  156.4753 C.3     1  UNL1        0.0001
     35 C         144.1755  142.3073  156.2886 C.3     1  UNL1        0.0000
     36 C         144.8482  141.7000  157.4839 C.3     1  UNL1        0.0000
     37 C         144.4505  142.1267  158.8658 C.3     1  UNL1        0.0000
     38 C         143.3800  143.1607  159.0524 C.3     1  UNL1        0.0001
@<TRIPOS>BOND
     1    29    30    1
     2    30    28    1
     3    27    28    1
     4    27    32    1
     5    32    33    1
     6    33    34    1
     7    34    35    1
     8    35    36    1
     9    36    37    1
    10    37    38    1
    11    27     1    1
    12     1     2   am
    13     2     3    2
    14     2     4   am
    15     4     5    1
    16     5     6    1
    17     6     7    1
    18     8     7    1
    19     8    11    1
    20    11    12    1
    21    11    21    1
    22    21    22    1
    23    22    23    1
    24    23    24    1
    25    24    25    1
    26    25    26    1
    27    11    14    1
    28    14    15   ar
    29    15    16   ar
    30    16    17   ar
    31    17    18   ar
    32    18    19    1
    33    18    20   ar
    34     8     9    1
    35    38    33    1
    36     9     4    1
    37    20    14   ar
    38    30    31    1
    39     1    10    1
    40    12    13    1
@<TRIPOS>MOLECULE
*****
 38 40 0 0 0
SMALL
GASTEIGER

@<TRIPOS>ATOM
      1 N         143.5559  143.2731  160.8065 N.am    1  UNL1       -0.2890
      2 C         142.6700  142.4884  161.7282 C.2     1  UNL1        0.3040
      3 O         141.5134  141.7102  161.1745 O.2     1  UNL1       -0.2526
      4 N         142.9408  142.4819  163.2035 N.am    1  UNL1       -0.2641
      5 C         144.0975  143.2602  163.7572 C.3     1  UNL1        0.0949
      6 C         144.3683  143.2537  165.2325 C.3     1  UNL1        0.0217
      7 C         143.4823  142.4690  166.1542 C.3     1  UNL1        0.0061
      8 C         142.3257  141.6908  165.6006 C.3     1  UNL1        0.0485
      9 C         142.0549  141.6973  164.1252 C.3     1  UNL1        0.0975
     10 H         144.3150  143.7839  161.1699 H       1  UNL1        0.1510
     11 C         141.4399  140.9062  166.5222 C.3     1  UNL1        0.1085
     12 O         142.6499  140.3003  167.1694 O.3     1  UNL1       -0.3826
     13 H         143.3919  140.3146  166.5448 H       1  UNL1        0.2107
     14 C         140.2299  141.5120  165.8751 C.ar    1  UNL1        0.0026
     15 C         139.2496  140.6375  165.1510 C.ar    1  UNL1       -0.0020
     16 C         138.0395  141.2435  164.5038 C.ar    1  UNL1        0.0006
     17 C         137.8099  142.7237  164.5807 C.ar    1  UNL1        0.0114
     18 C         138.7902  143.5982  165.3048 C.ar    1  UNL1        0.0574
     19 CL        138.5605  145.0786  165.3817 Cl      1  UNL1       -0.0823
     20 C         140.0002  142.9924  165.9520 C.ar    1  UNL1        0.0094
     21 C         140.5540  140.1215  167.4440 C.3     1  UNL1        0.0313
     22 C         140.6069  140.3653  168.9230 C.3     1  UNL1        0.0053
     23 C         140.2048  141.6996  169.4780 C.3     1  UNL1        0.0322
     24 C         140.8474  142.2150  170.7316 C.3     1  UNL1        0.1423
     25 O         142.0071  143.1624  170.6451 O.3     1  UNL1       -0.3511
     26 C         143.3106  142.7011  170.0635 C.3     1  UNL1        0.1741
     27 C         143.2851  143.2796  159.3311 C.3     1  UNL1        0.0887
     28 C         142.3194  144.2696  158.7502 C.3     1  UNL1        0.0884
     29 C         140.5061  145.3571  160.2597 C.3     1  UNL1        0.0859
     30 N         141.8406  145.4249  159.5783 N.3     1  UNL1       -0.2949
     31 H         142.5371  145.5722  160.3089 H       1  UNL1        0.1233
     32 C         143.9799  142.2961  158.4368 C.3     1  UNL1        0.0210
     33 C         143.3567  140.9589  158.1651 C.3     1  UNL1        0.0017
     34 C         142.5382  140.7509  156.9254 C.3     1  UNL1        0.0001
     35 C         141.9151  139.4138  156.6538 C.3     1  UNL1        0.0000
     36 C         142.1103  138.2848  157.6218 C.3     1  UNL1        0.0000
     37 C         142.9288  138.4928  158.8615 C.3     1  UNL1        0.0000
     38 C         143.5520  139.8299  159.1331 C.3     1  UNL1        0.0001
@<TRIPOS>BOND
     1    29    30    1
     2    30    28    1
     3    27    28    1
     4    27    32    1
     5    32    33    1
     6    33    34    1
     7    34    35    1
     8    35    36    1
     9    36    37    1
    10    37    38    1
    11    27     1    1
    12     1     2   am
    13     2     3    2
    14     2     4   am
    15     4     5    1
    16     5     6    1
    17     6     7    1
    18     8     7    1
    19     8    11    1
    20    11    12    1
    21    11    21    1
    22    21    22    1
    23    22    23    1
    24    23    24    1
    25    24    25    1
    26    25    26    1
    27    11    14    1
    28    14    15   ar
    29    15    16   ar
    30    16    17   ar
    31    17    18   ar
    32    18    19    1
    33    18    20   ar
    34     8     9    1
    35    38    33    1
    36     9     4    1
    37    20    14   ar
    38    30    31    1
    39     1    10    1
    40    12    13    1
