@<TRIPOS>MOLECULE
*****
 35 38 0 0 0
SMALL
GASTEIGER

@<TRIPOS>ATOM
      1 C         143.8079  142.1913  164.5994 C.ar    1  UNL1        0.1532
      2 C         143.7099  142.6067  166.0374 C.ar    1  UNL1        0.0573
      3 C         142.6994  141.9598  166.9377 C.ar    1  UNL1        0.0856
      4 N         142.6015  142.3753  168.3757 N.ar    1  UNL1       -0.2435
      5 C         141.5911  141.7284  169.2761 C.ar    1  UNL1        0.1045
      6 C         140.6786  140.6661  168.7384 C.ar    1  UNL1        0.0856
      7 C         140.7766  140.2507  167.3004 C.ar    1  UNL1        0.0557
      8 C         141.7870  140.8976  166.4001 C.ar    1  UNL1        0.0327
      9 C         141.8850  140.4822  164.9621 C.ar    1  UNL1        0.0203
     10 C         142.8955  141.1291  164.0618 C.ar    1  UNL1        0.0825
     11 N         142.9934  140.7136  162.6237 N.pl3   1  UNL1       -0.3023
     12 C         142.1371  141.3827  161.5898 C.3     1  UNL1        0.1082
     13 C         142.2350  140.9673  160.1518 C.3     1  UNL1        0.0938
     14 N         143.1894  139.8828  159.7477 N.3     1  UNL1       -0.2686
     15 C         143.2873  139.4674  158.3098 C.3     1  UNL1        0.0897
     16 C         144.0457  139.2137  160.7817 C.3     1  UNL1        0.0938
     17 C         143.9477  139.6291  162.2197 C.3     1  UNL1        0.1082
     18 C         139.6682  140.0193  169.6387 C.2     1  UNL1        0.2455
     19 N         139.9784  139.8190  171.0926 N.am    1  UNL1       -0.3252
     20 O         138.3475  139.5727  169.0852 O.2     1  UNL1       -0.2703
     21 H         140.8452  140.1122  171.4558 H       1  UNL1        0.1453
     22 H         139.3152  139.3945  171.6835 H       1  UNL1        0.1453
     23 N         139.8642  139.1885  166.7628 N.pl3   1  UNL1       -0.3106
     24 H         139.6916  138.3750  167.2898 H       1  UNL1        0.1523
     25 C         139.2148  139.3657  165.4223 C.ar    1  UNL1        0.0763
     26 C         138.4082  140.5977  165.1366 C.ar    1  UNL1        0.0192
     27 C         137.7588  140.7749  163.7962 C.ar    1  UNL1        0.0311
     28 C         137.9159  139.7201  162.7413 C.ar    1  UNL1        0.1425
     29 F         137.2665  139.8973  161.4009 F       1  UNL1       -0.2041
     30 C         138.7225  138.4880  163.0270 C.ar    1  UNL1        0.0605
     31 C         139.3719  138.3108  164.3675 C.ar    1  UNL1        0.1556
     32 F         140.1784  137.0788  164.6532 F       1  UNL1       -0.2028
     33 O         144.8183  142.8382  163.6990 O.3     1  UNL1       -0.4742
     34 C         143.6356  145.1347  163.4221 C.3     1  UNL1        0.0512
     35 C         144.4198  143.9984  162.8359 C.3     1  UNL1        0.2056
@<TRIPOS>BOND
     1    34    35    1
     2    35    33    1
     3    33     1    1
     4     1     2   ar
     5     2     3   ar
     6     3     4   ar
     7     4     5   ar
     8     5     6   ar
     9     6    18    1
    10    18    19   am
    11    18    20    2
    12     6     7   ar
    13     7    23    1
    14    23    25    1
    15    25    26   ar
    16    26    27   ar
    17    27    28   ar
    18    28    29    1
    19    28    30   ar
    20    30    31   ar
    21    31    32    1
    22     7     8   ar
    23     8     9   ar
    24     9    10   ar
    25    10    11    1
    26    11    12    1
    27    12    13    1
    28    13    14    1
    29    14    15    1
    30    14    16    1
    31    16    17    1
    32    10     1   ar
    33    17    11    1
    34     8     3   ar
    35    31    25   ar
    36    19    21    1
    37    19    22    1
    38    23    24    1
@<TRIPOS>MOLECULE
*****
 35 38 0 0 0
SMALL
GASTEIGER

@<TRIPOS>ATOM
      1 C         138.2314  141.1258  162.4556 C.ar    1  UNL1        0.1532
      2 C         137.6994  140.2091  163.5170 C.ar    1  UNL1        0.0573
      3 C         138.3552  140.1622  164.8652 C.ar    1  UNL1        0.0856
      4 N         137.8231  139.2454  165.9266 N.ar    1  UNL1       -0.2435
      5 C         138.4789  139.1986  167.2748 C.ar    1  UNL1        0.1045
      6 C         139.6668  140.0685  167.5616 C.ar    1  UNL1        0.0856
      7 C         140.1989  140.9852  166.5003 C.ar    1  UNL1        0.0557
      8 C         139.5430  141.0321  165.1521 C.ar    1  UNL1        0.0327
      9 C         140.0751  141.9488  164.0907 C.ar    1  UNL1        0.0203
     10 C         139.4192  141.9957  162.7425 C.ar    1  UNL1        0.0825
     11 N         139.9513  142.9125  161.6811 N.pl3   1  UNL1       -0.3023
     12 C         139.6351  144.3780  161.7286 C.3     1  UNL1        0.1082
     13 C         140.1672  145.2948  160.6673 C.3     1  UNL1        0.0938
     14 N         141.0154  144.7461  159.5584 N.3     1  UNL1       -0.2686
     15 C         141.5475  145.6629  158.4971 C.3     1  UNL1        0.0897
     16 C         141.3316  143.2805  159.5110 C.3     1  UNL1        0.0938
     17 C         140.7995  142.3637  160.5723 C.3     1  UNL1        0.1082
     18 C         140.3227  140.0216  168.9098 C.2     1  UNL1        0.2455
     19 N         139.4824  139.9663  170.1511 N.am    1  UNL1       -0.3252
     20 O         141.8189  140.0300  169.0168 O.2     1  UNL1       -0.2703
     21 H         138.5004  139.9608  170.0809 H       1  UNL1        0.1453
     22 H         139.9128  139.9355  171.0360 H       1  UNL1        0.1453
     23 N         141.3867  141.8551  166.7871 N.pl3   1  UNL1       -0.3106
     24 H         141.3590  142.4952  167.5346 H       1  UNL1        0.1523
     25 C         142.6168  141.7497  165.9351 C.ar    1  UNL1        0.0763
     26 C         143.3147  142.9928  165.4685 C.ar    1  UNL1        0.0192
     27 C         144.5447  142.8874  164.6165 C.ar    1  UNL1        0.0311
     28 C         145.0768  141.5390  164.2310 C.ar    1  UNL1        0.1425
     29 F         146.3068  141.4337  163.3790 F       1  UNL1       -0.2041
     30 C         144.3789  140.2959  164.6976 C.ar    1  UNL1        0.0605
     31 C         143.1489  140.4013  165.5496 C.ar    1  UNL1        0.1556
     32 F         142.4510  139.1582  166.0162 F       1  UNL1       -0.2028
     33 O         137.5756  141.1727  161.1074 O.3     1  UNL1       -0.4742
     34 C         138.9379  139.1404  160.2334 C.3     1  UNL1        0.0512
     35 C         137.7242  140.0189  160.1605 C.3     1  UNL1        0.2056
@<TRIPOS>BOND
     1    34    35    1
     2    35    33    1
     3    33     1    1
     4     1     2   ar
     5     2     3   ar
     6     3     4   ar
     7     4     5   ar
     8     5     6   ar
     9     6    18    1
    10    18    19   am
    11    18    20    2
    12     6     7   ar
    13     7    23    1
    14    23    25    1
    15    25    26   ar
    16    26    27   ar
    17    27    28   ar
    18    28    29    1
    19    28    30   ar
    20    30    31   ar
    21    31    32    1
    22     7     8   ar
    23     8     9   ar
    24     9    10   ar
    25    10    11    1
    26    11    12    1
    27    12    13    1
    28    13    14    1
    29    14    15    1
    30    14    16    1
    31    16    17    1
    32    10     1   ar
    33    17    11    1
    34     8     3   ar
    35    31    25   ar
    36    19    21    1
    37    19    22    1
    38    23    24    1
@<TRIPOS>MOLECULE
*****
 35 38 0 0 0
SMALL
GASTEIGER

@<TRIPOS>ATOM
      1 C         138.6024  140.2510  165.5359 C.ar    1  UNL1        0.1532
      2 C         137.8293  140.6985  164.3309 C.ar    1  UNL1        0.0573
      3 C         138.3006  141.8780  163.5330 C.ar    1  UNL1        0.0856
      4 N         137.5274  142.3256  162.3280 N.ar    1  UNL1       -0.2435
      5 C         137.9987  143.5051  161.5301 C.ar    1  UNL1        0.1045
      6 C         139.2432  144.2370  161.9372 C.ar    1  UNL1        0.0856
      7 C         140.0162  143.7895  163.1422 C.ar    1  UNL1        0.0557
      8 C         139.5450  142.6100  163.9401 C.ar    1  UNL1        0.0327
      9 C         140.3180  142.1624  165.1450 C.ar    1  UNL1        0.0203
     10 C         139.8467  140.9829  165.9430 C.ar    1  UNL1        0.0825
     11 N         140.6199  140.5353  167.1480 N.pl3   1  UNL1       -0.3023
     12 C         141.9135  139.7955  166.9768 C.3     1  UNL1        0.1082
     13 C         142.6866  139.3480  168.1817 C.3     1  UNL1        0.0938
     14 N         142.1662  139.6402  169.5579 N.3     1  UNL1       -0.2686
     15 C         142.9394  139.1927  170.7628 C.3     1  UNL1        0.0897
     16 C         140.8726  140.3801  169.7291 C.3     1  UNL1        0.0938
     17 C         140.0995  140.8276  168.5241 C.3     1  UNL1        0.1082
     18 C         139.7145  145.4165  161.1393 C.2     1  UNL1        0.2455
     19 N         139.9897  145.2679  159.6723 N.am    1  UNL1       -0.3252
     20 O         139.9105  146.7447  161.8085 O.2     1  UNL1       -0.2703
     21 H         139.8611  144.3963  159.2331 H       1  UNL1        0.1453
     22 H         140.2990  146.0421  159.1486 H       1  UNL1        0.1453
     23 N         141.2606  144.5214  163.5492 N.pl3   1  UNL1       -0.3106
     24 H         141.2076  145.4628  163.8324 H       1  UNL1        0.1523
     25 C         142.5858  143.8190  163.5248 C.ar    1  UNL1        0.0763
     26 C         143.3496  143.6140  164.7995 C.ar    1  UNL1        0.0192
     27 C         144.6747  142.9116  164.7751 C.ar    1  UNL1        0.0311
     28 C         145.2362  142.4143  163.4761 C.ar    1  UNL1        0.1425
     29 F         146.5614  141.7119  163.4518 F       1  UNL1       -0.2041
     30 C         144.4725  142.6193  162.2015 C.ar    1  UNL1        0.0605
     31 C         143.1473  143.3217  162.2258 C.ar    1  UNL1        0.1556
     32 F         142.3836  143.5267  160.9512 F       1  UNL1       -0.2028
     33 O         138.1311  139.0715  166.3338 O.3     1  UNL1       -0.4742
     34 C         139.5196  137.4281  164.8773 C.3     1  UNL1        0.0512
     35 C         138.4019  137.6792  165.8457 C.3     1  UNL1        0.2056
@<TRIPOS>BOND
     1    34    35    1
     2    35    33    1
     3    33     1    1
     4     1     2   ar
     5     2     3   ar
     6     3     4   ar
     7     4     5   ar
     8     5     6   ar
     9     6    18    1
    10    18    19   am
    11    18    20    2
    12     6     7   ar
    13     7    23    1
    14    23    25    1
    15    25    26   ar
    16    26    27   ar
    17    27    28   ar
    18    28    29    1
    19    28    30   ar
    20    30    31   ar
    21    31    32    1
    22     7     8   ar
    23     8     9   ar
    24     9    10   ar
    25    10    11    1
    26    11    12    1
    27    12    13    1
    28    13    14    1
    29    14    15    1
    30    14    16    1
    31    16    17    1
    32    10     1   ar
    33    17    11    1
    34     8     3   ar
    35    31    25   ar
    36    19    21    1
    37    19    22    1
    38    23    24    1
@<TRIPOS>MOLECULE
*****
 35 38 0 0 0
SMALL
GASTEIGER

@<TRIPOS>ATOM
      1 C         143.4144  143.5375  164.3306 C.ar    1  UNL1        0.1532
      2 C         143.9543  143.3038  165.7103 C.ar    1  UNL1        0.0573
      3 C         143.0958  142.6473  166.7505 C.ar    1  UNL1        0.0856
      4 N         143.6359  142.4136  168.1303 N.ar    1  UNL1       -0.2435
      5 C         142.7773  141.7571  169.1704 C.ar    1  UNL1        0.1045
      6 C         141.3788  141.3343  168.8308 C.ar    1  UNL1        0.0856
      7 C         140.8388  141.5680  167.4510 C.ar    1  UNL1        0.0557
      8 C         141.6973  142.2245  166.4109 C.ar    1  UNL1        0.0327
      9 C         141.1573  142.4582  165.0311 C.ar    1  UNL1        0.0203
     10 C         142.0159  143.1147  163.9910 C.ar    1  UNL1        0.0825
     11 N         141.4758  143.3484  162.6112 N.pl3   1  UNL1       -0.3023
     12 C         141.3562  142.2040  161.6488 C.3     1  UNL1        0.1082
     13 C         140.8162  142.4376  160.2691 C.3     1  UNL1        0.0938
     14 N         140.3958  143.8157  159.8516 N.3     1  UNL1       -0.2686
     15 C         139.8558  144.0493  158.4718 C.3     1  UNL1        0.0897
     16 C         140.5154  144.9601  160.8139 C.3     1  UNL1        0.0938
     17 C         141.0555  144.7264  162.1937 C.3     1  UNL1        0.1082
     18 C         140.5202  140.6777  169.8709 C.2     1  UNL1        0.2455
     19 N         140.9489  139.3788  170.4865 N.am    1  UNL1       -0.3252
     20 O         139.2330  141.3202  170.2956 O.2     1  UNL1       -0.2703
     21 H         141.7938  138.9571  170.2078 H       1  UNL1        0.1453
     22 H         140.3854  138.9479  171.1692 H       1  UNL1        0.1453
     23 N         139.4403  141.1451  167.1114 N.pl3   1  UNL1       -0.3106
     24 H         138.6826  141.4756  167.6462 H       1  UNL1        0.1523
     25 C         139.1962  140.2188  165.9571 C.ar    1  UNL1        0.0763
     26 C         139.8380  138.8633  165.9345 C.ar    1  UNL1        0.0192
     27 C         139.5940  137.9370  164.7803 C.ar    1  UNL1        0.0311
     28 C         138.7081  138.3663  163.6484 C.ar    1  UNL1        0.1425
     29 F         138.4640  137.4400  162.4942 F       1  UNL1       -0.2041
     30 C         138.0662  139.7218  163.6710 C.ar    1  UNL1        0.0605
     31 C         138.3103  140.6481  164.8253 C.ar    1  UNL1        0.1556
     32 F         137.6685  142.0037  164.8479 F       1  UNL1       -0.2028
     33 O         144.2729  144.1940  163.2904 O.3     1  UNL1       -0.4742
     34 C         145.1618  141.9339  162.3677 C.3     1  UNL1        0.0512
     35 C         144.8345  143.3830  162.1605 C.3     1  UNL1        0.2056
@<TRIPOS>BOND
     1    34    35    1
     2    35    33    1
     3    33     1    1
     4     1     2   ar
     5     2     3   ar
     6     3     4   ar
     7     4     5   ar
     8     5     6   ar
     9     6    18    1
    10    18    19   am
    11    18    20    2
    12     6     7   ar
    13     7    23    1
    14    23    25    1
    15    25    26   ar
    16    26    27   ar
    17    27    28   ar
    18    28    29    1
    19    28    30   ar
    20    30    31   ar
    21    31    32    1
    22     7     8   ar
    23     8     9   ar
    24     9    10   ar
    25    10    11    1
    26    11    12    1
    27    12    13    1
    28    13    14    1
    29    14    15    1
    30    14    16    1
    31    16    17    1
    32    10     1   ar
    33    17    11    1
    34     8     3   ar
    35    31    25   ar
    36    19    21    1
    37    19    22    1
    38    23    24    1
@<TRIPOS>MOLECULE
*****
 35 38 0 0 0
SMALL
GASTEIGER

@<TRIPOS>ATOM
      1 C         142.6537  139.1133  164.1232 C.ar    1  UNL1        0.1532
      2 C         143.7478  139.6279  163.2356 C.ar    1  UNL1        0.0573
      3 C         143.4665  140.7347  162.2630 C.ar    1  UNL1        0.0856
      4 N         144.5608  141.2494  161.3754 N.ar    1  UNL1       -0.2435
      5 C         144.2794  142.3561  160.4028 C.ar    1  UNL1        0.1045
      6 C         142.9038  142.9483  160.3179 C.ar    1  UNL1        0.0856
      7 C         141.8096  142.4336  161.2054 C.ar    1  UNL1        0.0557
      8 C         142.0910  141.3268  162.1780 C.ar    1  UNL1        0.0327
      9 C         140.9968  140.8122  163.0656 C.ar    1  UNL1        0.0203
     10 C         141.2781  139.7054  164.0382 C.ar    1  UNL1        0.0825
     11 N         140.1839  139.1908  164.9258 N.pl3   1  UNL1       -0.3023
     12 C         139.5209  137.8812  164.6167 C.3     1  UNL1        0.1082
     13 C         138.4267  137.3666  165.5042 C.3     1  UNL1        0.0938
     14 N         137.9954  138.1615  166.7009 N.3     1  UNL1       -0.2686
     15 C         136.9011  137.6468  167.5885 C.3     1  UNL1        0.0897
     16 C         138.6583  139.4710  167.0101 C.3     1  UNL1        0.0938
     17 C         139.7526  139.9857  166.1225 C.3     1  UNL1        0.1082
     18 C         142.6225  144.0550  159.3453 C.2     1  UNL1        0.2455
     19 N         143.2439  144.0301  157.9803 N.am    1  UNL1       -0.3252
     20 O         141.7196  145.1869  159.7377 O.2     1  UNL1       -0.2703
     21 H         143.8365  143.2872  157.7228 H       1  UNL1        0.1453
     22 H         143.0593  144.7565  157.3420 H       1  UNL1        0.1453
     23 N         140.4341  143.0257  161.1205 N.pl3   1  UNL1       -0.3106
     24 H         139.9536  143.0331  160.2612 H       1  UNL1        0.1523
     25 C         139.7907  143.6068  162.3446 C.ar    1  UNL1        0.0763
     26 C         140.5968  144.4511  163.2866 C.ar    1  UNL1        0.0192
     27 C         139.9535  145.0321  164.5107 C.ar    1  UNL1        0.0311
     28 C         138.5039  144.7688  164.7929 C.ar    1  UNL1        0.1425
     29 F         137.8606  145.3498  166.0170 F       1  UNL1       -0.2041
     30 C         137.6978  143.9245  163.8509 C.ar    1  UNL1        0.0605
     31 C         138.3412  143.3435  162.6268 C.ar    1  UNL1        0.1556
     32 F         137.5351  142.4992  161.6848 F       1  UNL1       -0.2028
     33 O         142.9350  138.0065  165.0957 O.3     1  UNL1       -0.4742
     34 C         142.9400  139.1019  167.4516 C.3     1  UNL1        0.0512
     35 C         143.6351  138.3040  166.3885 C.3     1  UNL1        0.2056
@<TRIPOS>BOND
     1    34    35    1
     2    35    33    1
     3    33     1    1
     4     1     2   ar
     5     2     3   ar
     6     3     4   ar
     7     4     5   ar
     8     5     6   ar
     9     6    18    1
    10    18    19   am
    11    18    20    2
    12     6     7   ar
    13     7    23    1
    14    23    25    1
    15    25    26   ar
    16    26    27   ar
    17    27    28   ar
    18    28    29    1
    19    28    30   ar
    20    30    31   ar
    21    31    32    1
    22     7     8   ar
    23     8     9   ar
    24     9    10   ar
    25    10    11    1
    26    11    12    1
    27    12    13    1
    28    13    14    1
    29    14    15    1
    30    14    16    1
    31    16    17    1
    32    10     1   ar
    33    17    11    1
    34     8     3   ar
    35    31    25   ar
    36    19    21    1
    37    19    22    1
    38    23    24    1
@<TRIPOS>MOLECULE
*****
 35 38 0 0 0
SMALL
GASTEIGER

@<TRIPOS>ATOM
      1 C         139.5062  138.2524  162.7370 C.ar    1  UNL1        0.1532
      2 C         139.4696  138.0621  161.2496 C.ar    1  UNL1        0.0573
      3 C         139.1341  139.2174  160.3537 C.ar    1  UNL1        0.0856
      4 N         139.0976  139.0270  158.8662 N.ar    1  UNL1       -0.2435
      5 C         138.7621  140.1823  157.9703 C.ar    1  UNL1        0.1045
      6 C         138.4631  141.5280  158.5618 C.ar    1  UNL1        0.0856
      7 C         138.4997  141.7183  160.0492 C.ar    1  UNL1        0.0557
      8 C         138.8352  140.5630  160.9452 C.ar    1  UNL1        0.0327
      9 C         138.8718  140.7534  162.4326 C.ar    1  UNL1        0.0203
     10 C         139.2073  139.5980  163.3285 C.ar    1  UNL1        0.0825
     11 N         139.2439  139.7884  164.8160 N.pl3   1  UNL1       -0.3023
     12 C         138.2844  139.0386  165.6918 C.3     1  UNL1        0.1082
     13 C         138.3209  139.2290  167.1792 C.3     1  UNL1        0.0938
     14 N         139.3169  140.1691  167.7908 N.3     1  UNL1       -0.2686
     15 C         139.3535  140.3595  169.2782 C.3     1  UNL1        0.0897
     16 C         140.2764  140.9190  166.9150 C.3     1  UNL1        0.0938
     17 C         140.2399  140.7286  165.4275 C.3     1  UNL1        0.1082
     18 C         138.1276  142.6833  157.6659 C.2     1  UNL1        0.2455
     19 N         136.8730  142.6556  156.8442 N.am    1  UNL1       -0.3252
     20 O         139.0468  143.8664  157.5916 O.2     1  UNL1       -0.2703
     21 H         136.2698  141.8791  156.8930 H       1  UNL1        0.1453
     22 H         136.6529  143.4139  156.2562 H       1  UNL1        0.1453
     23 N         138.2008  143.0640  160.6407 N.pl3   1  UNL1       -0.3106
     24 H         137.3312  143.4936  160.4720 H       1  UNL1        0.1523
     25 C         139.2268  143.7550  161.4892 C.ar    1  UNL1        0.0763
     26 C         140.6557  143.8165  161.0371 C.ar    1  UNL1        0.0192
     27 C         141.6817  144.5075  161.8855 C.ar    1  UNL1        0.0311
     28 C         141.2788  145.1371  163.1860 C.ar    1  UNL1        0.1425
     29 F         142.3048  145.8281  164.0344 F       1  UNL1       -0.2041
     30 C         139.8499  145.0756  163.6381 C.ar    1  UNL1        0.0605
     31 C         138.8239  144.3845  162.7896 C.ar    1  UNL1        0.1556
     32 F         137.3949  144.3231  163.2417 F       1  UNL1       -0.2028
     33 O         139.8417  137.0971  163.6330 O.3     1  UNL1       -0.4742
     34 C         142.2787  137.9702  163.8539 C.3     1  UNL1        0.0512
     35 C         141.2106  136.9890  164.2366 C.3     1  UNL1        0.2056
@<TRIPOS>BOND
     1    34    35    1
     2    35    33    1
     3    33     1    1
     4     1     2   ar
     5     2     3   ar
     6     3     4   ar
     7     4     5   ar
     8     5     6   ar
     9     6    18    1
    10    18    19   am
    11    18    20    2
    12     6     7   ar
    13     7    23    1
    14    23    25    1
    15    25    26   ar
    16    26    27   ar
    17    27    28   ar
    18    28    29    1
    19    28    30   ar
    20    30    31   ar
    21    31    32    1
    22     7     8   ar
    23     8     9   ar
    24     9    10   ar
    25    10    11    1
    26    11    12    1
    27    12    13    1
    28    13    14    1
    29    14    15    1
    30    14    16    1
    31    16    17    1
    32    10     1   ar
    33    17    11    1
    34     8     3   ar
    35    31    25   ar
    36    19    21    1
    37    19    22    1
    38    23    24    1
@<TRIPOS>MOLECULE
*****
 35 38 0 0 0
SMALL
GASTEIGER

@<TRIPOS>ATOM
      1 C         139.2094  138.7126  163.2669 C.ar    1  UNL1        0.1532
      2 C         138.6174  138.8233  164.6407 C.ar    1  UNL1        0.0573
      3 C         139.4656  139.2867  165.7878 C.ar    1  UNL1        0.0856
      4 N         138.8735  139.3973  167.1616 N.ar    1  UNL1       -0.2435
      5 C         139.7216  139.8607  168.3087 C.ar    1  UNL1        0.1045
      6 C         141.1619  140.2134  168.0820 C.ar    1  UNL1        0.0856
      7 C         141.7539  140.1028  166.7083 C.ar    1  UNL1        0.0557
      8 C         140.9058  139.6394  165.5612 C.ar    1  UNL1        0.0327
      9 C         141.4978  139.5288  164.1874 C.ar    1  UNL1        0.0203
     10 C         140.6496  139.0654  163.0403 C.ar    1  UNL1        0.0825
     11 N         141.2417  138.9547  161.6665 N.pl3   1  UNL1       -0.3023
     12 C         142.0758  137.7622  161.3031 C.3     1  UNL1        0.1082
     13 C         142.6679  137.6515  159.9294 C.3     1  UNL1        0.0938
     14 N         142.4259  138.7334  158.9190 N.3     1  UNL1       -0.2686
     15 C         143.0179  138.6227  157.5452 C.3     1  UNL1        0.0897
     16 C         141.5917  139.9260  159.2823 C.3     1  UNL1        0.0938
     17 C         140.9996  140.0366  160.6561 C.3     1  UNL1        0.1082
     18 C         142.0101  140.6768  169.2291 C.2     1  UNL1        0.2455
     19 N         142.0058  139.9145  170.5209 N.am    1  UNL1       -0.3252
     20 O         142.8625  141.9026  169.0844 O.2     1  UNL1       -0.2703
     21 H         141.4463  139.1100  170.6159 H       1  UNL1        0.1453
     22 H         142.5625  140.2186  171.2738 H       1  UNL1        0.1453
     23 N         143.1941  140.4555  166.4817 N.pl3   1  UNL1       -0.3106
     24 H         143.8996  139.9957  166.9916 H       1  UNL1        0.1523
     25 C         143.5594  141.5089  165.4781 C.ar    1  UNL1        0.0763
     26 C         142.8220  142.8150  165.4596 C.ar    1  UNL1        0.0192
     27 C         143.1872  143.8683  164.4561 C.ar    1  UNL1        0.0311
     28 C         144.2898  143.6156  163.4710 C.ar    1  UNL1        0.1425
     29 F         144.6550  144.6689  162.4675 F       1  UNL1       -0.2041
     30 C         145.0272  142.3095  163.4895 C.ar    1  UNL1        0.0605
     31 C         144.6620  141.2561  164.4930 C.ar    1  UNL1        0.1556
     32 F         145.3994  139.9500  164.5115 F       1  UNL1       -0.2028
     33 O         138.3613  138.2493  162.1198 O.3     1  UNL1       -0.4742
     34 C         137.5922  140.6945  161.6961 C.3     1  UNL1        0.0512
     35 C         137.5933  139.2466  161.3040 C.3     1  UNL1        0.2056
@<TRIPOS>BOND
     1    34    35    1
     2    35    33    1
     3    33     1    1
     4     1     2   ar
     5     2     3   ar
     6     3     4   ar
     7     4     5   ar
     8     5     6   ar
     9     6    18    1
    10    18    19   am
    11    18    20    2
    12     6     7   ar
    13     7    23    1
    14    23    25    1
    15    25    26   ar
    16    26    27   ar
    17    27    28   ar
    18    28    29    1
    19    28    30   ar
    20    30    31   ar
    21    31    32    1
    22     7     8   ar
    23     8     9   ar
    24     9    10   ar
    25    10    11    1
    26    11    12    1
    27    12    13    1
    28    13    14    1
    29    14    15    1
    30    14    16    1
    31    16    17    1
    32    10     1   ar
    33    17    11    1
    34     8     3   ar
    35    31    25   ar
    36    19    21    1
    37    19    22    1
    38    23    24    1
@<TRIPOS>MOLECULE
*****
 35 38 0 0 0
SMALL
GASTEIGER

@<TRIPOS>ATOM
      1 C         139.2166  143.4331  164.1037 C.ar    1  UNL1        0.1532
      2 C         139.5160  143.7654  165.5354 C.ar    1  UNL1        0.0573
      3 C         140.1027  142.7229  166.4404 C.ar    1  UNL1        0.0856
      4 N         140.4021  143.0552  167.8722 N.ar    1  UNL1       -0.2435
      5 C         140.9887  142.0128  168.7772 C.ar    1  UNL1        0.1045
      6 C         141.2759  140.6379  168.2505 C.ar    1  UNL1        0.0856
      7 C         140.9765  140.3056  166.8187 C.ar    1  UNL1        0.0557
      8 C         140.3899  141.3481  165.9137 C.ar    1  UNL1        0.0327
      9 C         140.0904  141.0158  164.4820 C.ar    1  UNL1        0.0203
     10 C         139.5038  142.0583  163.5770 C.ar    1  UNL1        0.0825
     11 N         139.2043  141.7260  162.1452 N.pl3   1  UNL1       -0.3023
     12 C         140.1349  142.1793  161.0596 C.3     1  UNL1        0.1082
     13 C         139.8355  141.8470  159.6279 C.3     1  UNL1        0.0938
     14 N         138.6055  141.0613  159.2816 N.3     1  UNL1       -0.2686
     15 C         138.3061  140.7290  157.8499 C.3     1  UNL1        0.0897
     16 C         137.6749  140.6079  160.3672 C.3     1  UNL1        0.0938
     17 C         137.9744  140.9403  161.7990 C.3     1  UNL1        0.1082
     18 C         141.8626  139.5954  169.1555 C.2     1  UNL1        0.2455
     19 N         141.1947  139.2722  170.4591 N.am    1  UNL1       -0.3252
     20 O         143.1171  138.8761  168.7568 O.2     1  UNL1       -0.2703
     21 H         140.3714  139.7443  170.7207 H       1  UNL1        0.1453
     22 H         141.5798  138.5880  171.0531 H       1  UNL1        0.1453
     23 N         141.2637  138.9308  166.2920 N.pl3   1  UNL1       -0.3106
     24 H         140.9359  138.1394  166.7773 H       1  UNL1        0.1523
     25 C         142.0503  138.7619  165.0260 C.ar    1  UNL1        0.0763
     26 C         143.3950  139.4115  164.8862 C.ar    1  UNL1        0.0192
     27 C         144.1816  139.2426  163.6202 C.ar    1  UNL1        0.0311
     28 C         143.6234  138.4239  162.4940 C.ar    1  UNL1        0.1425
     29 F         144.4100  138.2550  161.2280 F       1  UNL1       -0.2041
     30 C         142.2786  137.7743  162.6338 C.ar    1  UNL1        0.0605
     31 C         141.4921  137.9433  163.8998 C.ar    1  UNL1        0.1556
     32 F         140.1473  137.2936  164.0396 F       1  UNL1       -0.2028
     33 O         138.6300  144.4756  163.1986 O.3     1  UNL1       -0.4742
     34 C         141.0110  145.3948  162.7134 C.3     1  UNL1        0.0512
     35 C         139.5257  145.4667  162.5166 C.3     1  UNL1        0.2056
@<TRIPOS>BOND
     1    34    35    1
     2    35    33    1
     3    33     1    1
     4     1     2   ar
     5     2     3   ar
     6     3     4   ar
     7     4     5   ar
     8     5     6   ar
     9     6    18    1
    10    18    19   am
    11    18    20    2
    12     6     7   ar
    13     7    23    1
    14    23    25    1
    15    25    26   ar
    16    26    27   ar
    17    27    28   ar
    18    28    29    1
    19    28    30   ar
    20    30    31   ar
    21    31    32    1
    22     7     8   ar
    23     8     9   ar
    24     9    10   ar
    25    10    11    1
    26    11    12    1
    27    12    13    1
    28    13    14    1
    29    14    15    1
    30    14    16    1
    31    16    17    1
    32    10     1   ar
    33    17    11    1
    34     8     3   ar
    35    31    25   ar
    36    19    21    1
    37    19    22    1
    38    23    24    1
@<TRIPOS>MOLECULE
*****
 35 38 0 0 0
SMALL
GASTEIGER

@<TRIPOS>ATOM
      1 C         139.7422  138.3364  162.6354 C.ar    1  UNL1        0.1532
      2 C         138.8404  137.9753  163.7783 C.ar    1  UNL1        0.0573
      3 C         139.0133  138.6433  165.1102 C.ar    1  UNL1        0.0856
      4 N         138.1115  138.2821  166.2531 N.ar    1  UNL1       -0.2435
      5 C         138.2844  138.9501  167.5850 C.ar    1  UNL1        0.1045
      6 C         139.3592  139.9793  167.7739 C.ar    1  UNL1        0.0856
      7 C         140.2610  140.3404  166.6310 C.ar    1  UNL1        0.0557
      8 C         140.0881  139.6724  165.2991 C.ar    1  UNL1        0.0327
      9 C         140.9899  140.0335  164.1562 C.ar    1  UNL1        0.0203
     10 C         140.8170  139.3655  162.8244 C.ar    1  UNL1        0.0825
     11 N         141.7188  139.7267  161.6814 N.pl3   1  UNL1       -0.3023
     12 C         142.8847  138.8472  161.3392 C.3     1  UNL1        0.1082
     13 C         143.7866  139.2083  160.1963 C.3     1  UNL1        0.0938
     14 N         143.5226  140.4490  159.3956 N.3     1  UNL1       -0.2686
     15 C         144.4244  140.8101  158.2527 C.3     1  UNL1        0.0897
     16 C         142.3567  141.3285  159.7378 C.3     1  UNL1        0.0938
     17 C         141.4548  140.9673  160.8808 C.3     1  UNL1        0.1082
     18 C         139.5322  140.6473  169.1057 C.2     1  UNL1        0.2455
     19 N         139.2327  139.8934  170.3674 N.am    1  UNL1       -0.3252
     20 O         140.0045  142.0693  169.1759 O.2     1  UNL1       -0.2703
     21 H         138.9227  138.9601  170.3214 H       1  UNL1        0.1453
     22 H         139.3463  140.3319  171.2416 H       1  UNL1        0.1453
     23 N         141.3358  141.3696  166.8199 N.pl3   1  UNL1       -0.3106
     24 H         141.9850  141.2743  167.5539 H       1  UNL1        0.1523
     25 C         141.4214  142.5439  165.8906 C.ar    1  UNL1        0.0763
     26 C         140.1900  143.3384  165.5705 C.ar    1  UNL1        0.0192
     27 C         140.2756  144.5127  164.6412 C.ar    1  UNL1        0.0311
     28 C         141.5927  144.8926  164.0319 C.ar    1  UNL1        0.1425
     29 F         141.6783  146.0669  163.1026 F       1  UNL1       -0.2041
     30 C         142.8241  144.0981  164.3520 C.ar    1  UNL1        0.0605
     31 C         142.7384  142.9237  165.2814 C.ar    1  UNL1        0.1556
     32 F         143.9698  142.1292  165.6014 F       1  UNL1       -0.2028
     33 O         139.5693  137.6684  161.3035 O.3     1  UNL1       -0.4742
     34 C         138.0100  139.5723  160.4706 C.3     1  UNL1        0.0512
     35 C         138.8999  138.4006  160.1785 C.3     1  UNL1        0.2056
@<TRIPOS>BOND
     1    34    35    1
     2    35    33    1
     3    33     1    1
     4     1     2   ar
     5     2     3   ar
     6     3     4   ar
     7     4     5   ar
     8     5     6   ar
     9     6    18    1
    10    18    19   am
    11    18    20    2
    12     6     7   ar
    13     7    23    1
    14    23    25    1
    15    25    26   ar
    16    26    27   ar
    17    27    28   ar
    18    28    29    1
    19    28    30   ar
    20    30    31   ar
    21    31    32    1
    22     7     8   ar
    23     8     9   ar
    24     9    10   ar
    25    10    11    1
    26    11    12    1
    27    12    13    1
    28    13    14    1
    29    14    15    1
    30    14    16    1
    31    16    17    1
    32    10     1   ar
    33    17    11    1
    34     8     3   ar
    35    31    25   ar
    36    19    21    1
    37    19    22    1
    38    23    24    1
