@<TRIPOS>MOLECULE
*****
 25 26 0 0 0
SMALL
GASTEIGER

@<TRIPOS>ATOM
      1 C         139.1990  139.9331  165.0442 C.ar    1  UNL1        0.1328
      2 N         138.1644  138.9840  165.5723 N.ar    1  UNL1       -0.1993
      3 C         138.0340  138.7630  167.0502 C.ar    1  UNL1        0.2148
      4 N         136.9993  137.8140  167.5782 N.pl3   1  UNL1       -0.3274
      5 N         138.9383  139.4910  168.0000 N.ar    1  UNL1       -0.2139
      6 C         139.9730  140.4401  167.4720 C.ar    1  UNL1        0.0870
      7 C         140.8773  141.1681  168.4219 C.ar    1  UNL1        0.0216
      8 C         141.9119  142.1171  167.8938 C.ar    1  UNL1        0.0312
      9 C         142.0423  142.3381  166.4159 C.ar    1  UNL1        0.1403
     10 F         143.0770  143.2872  165.8879 F       1  UNL1       -0.2042
     11 C         141.1380  141.6101  165.4661 C.ar    1  UNL1        0.0339
     12 C         140.1034  140.6611  165.9941 C.ar    1  UNL1        0.0514
     13 H         136.4058  137.3362  166.9548 H       1  UNL1        0.1452
     14 H         136.9137  137.6689  168.5482 H       1  UNL1        0.1452
     15 N         139.3294  140.1541  163.5664 N.pl3   1  UNL1       -0.3195
     16 H         140.2111  140.0844  163.1341 H       1  UNL1        0.1481
     17 C         138.1162  140.4812  162.7471 C.3     1  UNL1        0.0729
     18 C         137.2485  141.6454  163.1235 C.3     1  UNL1        0.0196
     19 C         137.8576  143.0021  163.3200 C.3     1  UNL1        0.0017
     20 C         138.9383  144.7098  164.9527 C.3     1  UNL1        0.0000
     21 C         137.9985  143.5679  164.7021 C.3     1  UNL1        0.0001
     22 C         137.7708  139.6441  161.5512 C.3     1  UNL1        0.0512
     23 C         137.7085  138.1505  161.6739 C.3     1  UNL1        0.1389
     24 O         138.5287  137.4487  162.7154 O.3     1  UNL1       -0.3819
     25 H         139.4709  137.5557  162.5111 H       1  UNL1        0.2104
@<TRIPOS>BOND
     1    20    21    1
     2    21    19    1
     3    19    18    1
     4    17    18    1
     5    17    22    1
     6    22    23    1
     7    23    24    1
     8    17    15    1
     9    15     1    1
    10     1     2   ar
    11     2     3   ar
    12     3     4    1
    13     3     5   ar
    14     5     6   ar
    15     6     7   ar
    16     7     8   ar
    17     8     9   ar
    18     9    10    1
    19     9    11   ar
    20    11    12   ar
    21    12     1   ar
    22    12     6   ar
    23    24    25    1
    24    15    16    1
    25     4    13    1
    26     4    14    1
@<TRIPOS>MOLECULE
*****
 25 26 0 0 0
SMALL
GASTEIGER

@<TRIPOS>ATOM
      1 C         142.1573  142.7008  165.1419 C.ar    1  UNL1        0.1328
      2 N         142.3908  143.9784  164.3914 N.ar    1  UNL1       -0.1993
      3 C         143.5495  144.0916  163.4455 C.ar    1  UNL1        0.2148
      4 N         143.7829  145.3693  162.6950 N.pl3   1  UNL1       -0.3274
      5 N         144.4747  142.9273  163.2502 N.ar    1  UNL1       -0.2139
      6 C         144.2412  141.6496  164.0007 C.ar    1  UNL1        0.0870
      7 C         145.1664  140.4853  163.8053 C.ar    1  UNL1        0.0216
      8 C         144.9329  139.2077  164.5558 C.ar    1  UNL1        0.0312
      9 C         143.7743  139.0945  165.5016 C.ar    1  UNL1        0.1403
     10 F         143.5408  137.8168  166.2521 F       1  UNL1       -0.2042
     11 C         142.8490  140.2588  165.6970 C.ar    1  UNL1        0.0339
     12 C         143.0825  141.5364  164.9465 C.ar    1  UNL1        0.0514
     13 H         143.1757  146.1335  162.8233 H       1  UNL1        0.1452
     14 H         144.5434  145.4436  162.0742 H       1  UNL1        0.1452
     15 N         140.9986  142.5876  166.0877 N.pl3   1  UNL1       -0.3195
     16 H         141.0831  142.9177  167.0114 H       1  UNL1        0.1481
     17 C         139.7112  141.9716  165.6263 C.3     1  UNL1        0.0729
     18 C         139.2665  140.6538  166.1882 C.3     1  UNL1        0.0196
     19 C         138.3683  139.7605  165.3848 C.3     1  UNL1        0.0017
     20 C         140.0531  137.8622  164.8298 C.3     1  UNL1        0.0000
     21 C         138.6833  138.2996  165.2568 C.3     1  UNL1        0.0001
     22 C         138.8684  142.6732  164.6028 C.3     1  UNL1        0.0512
     23 C         138.5608  144.1331  164.7577 C.3     1  UNL1        0.1389
     24 O         139.6557  145.1490  164.6189 O.3     1  UNL1       -0.3819
     25 H         140.2920  145.0395  165.3427 H       1  UNL1        0.2104
@<TRIPOS>BOND
     1    20    21    1
     2    21    19    1
     3    19    18    1
     4    17    18    1
     5    17    22    1
     6    22    23    1
     7    23    24    1
     8    17    15    1
     9    15     1    1
    10     1     2   ar
    11     2     3   ar
    12     3     4    1
    13     3     5   ar
    14     5     6   ar
    15     6     7   ar
    16     7     8   ar
    17     8     9   ar
    18     9    10    1
    19     9    11   ar
    20    11    12   ar
    21    12     1   ar
    22    12     6   ar
    23    24    25    1
    24    15    16    1
    25     4    13    1
    26     4    14    1
@<TRIPOS>MOLECULE
*****
 25 26 0 0 0
SMALL
GASTEIGER

@<TRIPOS>ATOM
      1 C         137.7172  141.5699  163.1162 C.ar    1  UNL1        0.1328
      2 N         137.6591  141.6110  161.6180 N.ar    1  UNL1       -0.1993
      3 C         137.9891  140.3841  160.8206 C.ar    1  UNL1        0.2148
      4 N         137.9310  140.4252  159.3223 N.pl3   1  UNL1       -0.3274
      5 N         138.3773  139.1160  161.5216 N.ar    1  UNL1       -0.2139
      6 C         138.4354  139.0749  163.0200 C.ar    1  UNL1        0.0870
      7 C         138.8235  137.8069  163.7209 C.ar    1  UNL1        0.0216
      8 C         138.8816  137.7658  165.2192 C.ar    1  UNL1        0.0312
      9 C         138.5516  138.9927  166.0165 C.ar    1  UNL1        0.1403
     10 F         138.6098  138.9516  167.5149 F       1  UNL1       -0.2042
     11 C         138.1635  140.2608  165.3156 C.ar    1  UNL1        0.0339
     12 C         138.1054  140.3018  163.8173 C.ar    1  UNL1        0.0514
     13 H         137.6762  141.2575  158.8622 H       1  UNL1        0.1452
     14 H         138.1476  139.6199  158.7990 H       1  UNL1        0.1452
     15 N         137.3872  142.7969  163.9135 N.pl3   1  UNL1       -0.3195
     16 H         136.5307  142.8551  164.3955 H       1  UNL1        0.1481
     17 C         138.3621  143.9351  163.9766 C.3     1  UNL1        0.0729
     18 C         139.1361  144.1908  165.2358 C.3     1  UNL1        0.0196
     19 C         140.2482  143.2660  165.6335 C.3     1  UNL1        0.0017
     20 C         141.6447  141.2279  164.8299 C.3     1  UNL1        0.0000
     21 C         141.0776  142.5938  164.5798 C.3     1  UNL1        0.0001
     22 C         138.5631  144.8176  162.7804 C.3     1  UNL1        0.0512
     23 C         139.9410  145.2856  162.4167 C.3     1  UNL1        0.1389
     24 O         140.2221  146.7523  162.2760 O.3     1  UNL1       -0.3819
     25 H         139.7261  147.1056  161.5210 H       1  UNL1        0.2104
@<TRIPOS>BOND
     1    20    21    1
     2    21    19    1
     3    19    18    1
     4    17    18    1
     5    17    22    1
     6    22    23    1
     7    23    24    1
     8    17    15    1
     9    15     1    1
    10     1     2   ar
    11     2     3   ar
    12     3     4    1
    13     3     5   ar
    14     5     6   ar
    15     6     7   ar
    16     7     8   ar
    17     8     9   ar
    18     9    10    1
    19     9    11   ar
    20    11    12   ar
    21    12     1   ar
    22    12     6   ar
    23    24    25    1
    24    15    16    1
    25     4    13    1
    26     4    14    1
@<TRIPOS>MOLECULE
*****
 25 26 0 0 0
SMALL
GASTEIGER

@<TRIPOS>ATOM
      1 C         139.6359  140.7122  167.4182 C.ar    1  UNL1        0.1328
      2 N         138.9704  139.4270  167.8122 N.ar    1  UNL1       -0.1993
      3 C         138.0307  138.7467  166.8613 C.ar    1  UNL1        0.2148
      4 N         137.3652  137.4615  167.2553 N.pl3   1  UNL1       -0.3274
      5 N         137.7566  139.3517  165.5163 N.ar    1  UNL1       -0.2139
      6 C         138.4222  140.6369  165.1223 C.ar    1  UNL1        0.0870
      7 C         138.1481  141.2419  163.7774 C.ar    1  UNL1        0.0216
      8 C         138.8136  142.5271  163.3834 C.ar    1  UNL1        0.0312
      9 C         139.7533  143.2073  164.3343 C.ar    1  UNL1        0.1403
     10 F         140.4188  144.4926  163.9402 F       1  UNL1       -0.2042
     11 C         140.0274  142.6024  165.6792 C.ar    1  UNL1        0.0339
     12 C         139.3618  141.3172  166.0732 C.ar    1  UNL1        0.0514
     13 H         137.5451  137.0644  168.1381 H       1  UNL1        0.1452
     14 H         136.7484  137.0150  166.6312 H       1  UNL1        0.1452
     15 N         140.5756  141.3925  168.3691 N.pl3   1  UNL1       -0.3195
     16 H         140.2277  142.0316  169.0322 H       1  UNL1        0.1481
     17 C         142.0454  141.0989  168.3099 C.3     1  UNL1        0.0729
     18 C         143.0102  142.1771  167.9145 C.3     1  UNL1        0.0196
     19 C         143.4003  142.3439  166.4757 C.3     1  UNL1        0.0017
     20 C         143.0257  141.3322  164.1122 C.3     1  UNL1        0.0000
     21 C         143.3960  141.1594  165.5554 C.3     1  UNL1        0.0001
     22 C         142.5503  139.7269  168.6460 C.3     1  UNL1        0.0512
     23 C         142.2028  139.1021  169.9646 C.3     1  UNL1        0.1389
     24 O         140.8171  139.2455  170.5205 O.3     1  UNL1       -0.3819
     25 H         140.6486  140.1769  170.7328 H       1  UNL1        0.2104
@<TRIPOS>BOND
     1    20    21    1
     2    21    19    1
     3    19    18    1
     4    17    18    1
     5    17    22    1
     6    22    23    1
     7    23    24    1
     8    17    15    1
     9    15     1    1
    10     1     2   ar
    11     2     3   ar
    12     3     4    1
    13     3     5   ar
    14     5     6   ar
    15     6     7   ar
    16     7     8   ar
    17     8     9   ar
    18     9    10    1
    19     9    11   ar
    20    11    12   ar
    21    12     1   ar
    22    12     6   ar
    23    24    25    1
    24    15    16    1
    25     4    13    1
    26     4    14    1
@<TRIPOS>MOLECULE
*****
 25 26 0 0 0
SMALL
GASTEIGER

@<TRIPOS>ATOM
      1 C         141.4219  144.1859  164.1681 C.ar    1  UNL1        0.1328
      2 N         142.4935  144.4395  163.1496 N.ar    1  UNL1       -0.1993
      3 C         143.7261  143.5849  163.1292 C.ar    1  UNL1        0.2148
      4 N         144.7977  143.8385  162.1106 N.pl3   1  UNL1       -0.3274
      5 N         143.8872  142.4768  164.1272 N.ar    1  UNL1       -0.2139
      6 C         142.8155  142.2232  165.1458 C.ar    1  UNL1        0.0870
      7 C         142.9766  141.1152  166.1439 C.ar    1  UNL1        0.0216
      8 C         141.9050  140.8616  167.1623 C.ar    1  UNL1        0.0312
      9 C         140.6724  141.7161  167.1828 C.ar    1  UNL1        0.1403
     10 F         139.6007  141.4625  168.2014 F       1  UNL1       -0.2042
     11 C         140.5113  142.8242  166.1847 C.ar    1  UNL1        0.0339
     12 C         141.5829  143.0778  165.1662 C.ar    1  UNL1        0.0514
     13 H         144.6920  144.5658  161.4556 H       1  UNL1        0.1452
     14 H         145.6068  143.2777  162.0972 H       1  UNL1        0.1452
     15 N         140.1893  145.0405  164.1885 N.pl3   1  UNL1       -0.3195
     16 H         139.9385  145.5231  165.0091 H       1  UNL1        0.1481
     17 C         139.3388  145.1596  162.9587 C.3     1  UNL1        0.0729
     18 C         138.0727  144.3637  162.8424 C.3     1  UNL1        0.0196
     19 C         137.7250  143.3499  163.8919 C.3     1  UNL1        0.0017
     20 C         138.1493  140.8122  164.2524 C.3     1  UNL1        0.0000
     21 C         137.4754  141.9230  163.5027 C.3     1  UNL1        0.0001
     22 C         139.7545  146.0747  161.8452 C.3     1  UNL1        0.0512
     23 C         140.3510  145.5074  160.5913 C.3     1  UNL1        0.1389
     24 O         141.8390  145.5071  160.4022 O.3     1  UNL1       -0.3819
     25 H         142.1564  146.4211  160.3339 H       1  UNL1        0.2104
@<TRIPOS>BOND
     1    20    21    1
     2    21    19    1
     3    19    18    1
     4    17    18    1
     5    17    22    1
     6    22    23    1
     7    23    24    1
     8    17    15    1
     9    15     1    1
    10     1     2   ar
    11     2     3   ar
    12     3     4    1
    13     3     5   ar
    14     5     6   ar
    15     6     7   ar
    16     7     8   ar
    17     8     9   ar
    18     9    10    1
    19     9    11   ar
    20    11    12   ar
    21    12     1   ar
    22    12     6   ar
    23    24    25    1
    24    15    16    1
    25     4    13    1
    26     4    14    1
@<TRIPOS>MOLECULE
*****
 25 26 0 0 0
SMALL
GASTEIGER

@<TRIPOS>ATOM
      1 C         139.9711  139.3885  164.8164 C.ar    1  UNL1        0.1328
      2 N         141.0375  139.1080  163.7995 N.ar    1  UNL1       -0.1993
      3 C         142.4759  139.0417  164.2199 C.ar    1  UNL1        0.2148
      4 N         143.5423  138.7612  163.2030 N.pl3   1  UNL1       -0.3274
      5 N         142.8478  139.2559  165.6572 N.ar    1  UNL1       -0.2139
      6 C         141.7814  139.5364  166.6741 C.ar    1  UNL1        0.0870
      7 C         142.1533  139.7506  168.1114 C.ar    1  UNL1        0.0216
      8 C         141.0869  140.0311  169.1282 C.ar    1  UNL1        0.0312
      9 C         139.6485  140.0975  168.7078 C.ar    1  UNL1        0.1403
     10 F         138.5821  140.3780  169.7247 F       1  UNL1       -0.2042
     11 C         139.2766  139.8833  167.2705 C.ar    1  UNL1        0.0339
     12 C         140.3430  139.6027  166.2537 C.ar    1  UNL1        0.0514
     13 H         143.2982  138.6206  162.2596 H       1  UNL1        0.1452
     14 H         144.4863  138.7177  163.4789 H       1  UNL1        0.1452
     15 N         138.5327  139.4548  164.3960 N.pl3   1  UNL1       -0.3195
     16 H         137.8473  138.9679  164.9081 H       1  UNL1        0.1481
     17 C         138.1388  140.2630  163.1953 C.3     1  UNL1        0.0729
     18 C         138.0634  141.7582  163.2895 C.3     1  UNL1        0.0196
     19 C         137.9425  142.4201  164.6302 C.3     1  UNL1        0.0017
     20 C         138.7457  144.8203  165.2167 C.3     1  UNL1        0.0000
     21 C         139.0189  143.3494  165.1075 C.3     1  UNL1        0.0001
     22 C         137.8202  139.5761  161.9004 C.3     1  UNL1        0.0512
     23 C         137.9774  138.0891  161.7817 C.3     1  UNL1        0.1389
     24 O         139.3356  137.4660  161.9108 O.3     1  UNL1       -0.3819
     25 H         139.8926  137.7479  161.1684 H       1  UNL1        0.2104
@<TRIPOS>BOND
     1    20    21    1
     2    21    19    1
     3    19    18    1
     4    17    18    1
     5    17    22    1
     6    22    23    1
     7    23    24    1
     8    17    15    1
     9    15     1    1
    10     1     2   ar
    11     2     3   ar
    12     3     4    1
    13     3     5   ar
    14     5     6   ar
    15     6     7   ar
    16     7     8   ar
    17     8     9   ar
    18     9    10    1
    19     9    11   ar
    20    11    12   ar
    21    12     1   ar
    22    12     6   ar
    23    24    25    1
    24    15    16    1
    25     4    13    1
    26     4    14    1
@<TRIPOS>MOLECULE
*****
 25 26 0 0 0
SMALL
GASTEIGER

@<TRIPOS>ATOM
      1 C         140.1965  142.0271  164.2223 C.ar    1  UNL1        0.1328
      2 N         138.8592  142.5179  163.7525 N.ar    1  UNL1       -0.1993
      3 C         138.7048  143.9310  163.2738 C.ar    1  UNL1        0.2148
      4 N         137.3674  144.4218  162.8040 N.pl3   1  UNL1       -0.3274
      5 N         139.8876  144.8533  163.2648 N.ar    1  UNL1       -0.2139
      6 C         141.2250  144.3626  163.7346 C.ar    1  UNL1        0.0870
      7 C         142.4078  145.2849  163.7256 C.ar    1  UNL1        0.0216
      8 C         143.7451  144.7941  164.1954 C.ar    1  UNL1        0.0312
      9 C         143.8996  143.3810  164.6741 C.ar    1  UNL1        0.1403
     10 F         145.2370  142.8902  165.1439 F       1  UNL1       -0.2042
     11 C         142.7167  142.4586  164.6831 C.ar    1  UNL1        0.0339
     12 C         141.3794  142.9494  164.2133 C.ar    1  UNL1        0.0514
     13 H         136.5910  143.8164  162.8099 H       1  UNL1        0.1452
     14 H         137.2660  145.3493  162.4898 H       1  UNL1        0.1452
     15 N         140.3510  140.6139  164.7010 N.pl3   1  UNL1       -0.3195
     16 H         140.8921  139.9751  164.1830 H       1  UNL1        0.1481
     17 C         139.6809  140.1741  165.9689 C.3     1  UNL1        0.0729
     18 C         139.8814  140.9557  167.2333 C.3     1  UNL1        0.0196
     19 C         141.2310  140.9912  167.8871 C.3     1  UNL1        0.0017
     20 C         143.2904  142.3517  168.6983 C.3     1  UNL1        0.0000
     21 C         141.8711  142.3076  168.2150 C.3     1  UNL1        0.0001
     22 C         138.8102  138.9526  165.9723 C.3     1  UNL1        0.0512
     23 C         137.7632  138.7808  167.0326 C.3     1  UNL1        0.1389
     24 O         137.0412  137.4731  167.1687 O.3     1  UNL1       -0.3819
     25 H         136.4994  137.3192  166.3790 H       1  UNL1        0.2104
@<TRIPOS>BOND
     1    20    21    1
     2    21    19    1
     3    19    18    1
     4    17    18    1
     5    17    22    1
     6    22    23    1
     7    23    24    1
     8    17    15    1
     9    15     1    1
    10     1     2   ar
    11     2     3   ar
    12     3     4    1
    13     3     5   ar
    14     5     6   ar
    15     6     7   ar
    16     7     8   ar
    17     8     9   ar
    18     9    10    1
    19     9    11   ar
    20    11    12   ar
    21    12     1   ar
    22    12     6   ar
    23    24    25    1
    24    15    16    1
    25     4    13    1
    26     4    14    1
@<TRIPOS>MOLECULE
*****
 25 26 0 0 0
SMALL
GASTEIGER

@<TRIPOS>ATOM
      1 C         140.8593  142.6304  162.8380 C.ar    1  UNL1        0.1328
      2 N         140.7905  143.4627  161.5920 N.ar    1  UNL1       -0.1993
      3 C         141.8378  144.5031  161.3263 C.ar    1  UNL1        0.2148
      4 N         141.7690  145.3354  160.0802 N.pl3   1  UNL1       -0.3274
      5 N         142.9539  144.7112  162.3065 N.ar    1  UNL1       -0.2139
      6 C         143.0228  143.8790  163.5526 C.ar    1  UNL1        0.0870
      7 C         144.1389  144.0871  164.5328 C.ar    1  UNL1        0.0216
      8 C         144.2077  143.2548  165.7788 C.ar    1  UNL1        0.0312
      9 C         143.1603  142.2144  166.0446 C.ar    1  UNL1        0.1403
     10 F         143.2292  141.3822  167.2907 F       1  UNL1       -0.2042
     11 C         142.0442  142.0063  165.0644 C.ar    1  UNL1        0.0339
     12 C         141.9754  142.8386  163.8184 C.ar    1  UNL1        0.0514
     13 H         141.0364  145.1988  159.4368 H       1  UNL1        0.1452
     14 H         142.4564  146.0182  159.9057 H       1  UNL1        0.1452
     15 N         139.8119  141.5900  163.1038 N.pl3   1  UNL1       -0.3195
     16 H         139.8522  140.7217  162.6416 H       1  UNL1        0.1481
     17 C         138.7032  141.8726  164.0738 C.3     1  UNL1        0.0729
     18 C         137.9984  140.7391  164.7582 C.3     1  UNL1        0.0196
     19 C         138.7902  139.6058  165.3403 C.3     1  UNL1        0.0017
     20 C         139.7596  140.4717  167.5898 C.3     1  UNL1        0.0000
     21 C         138.9341  139.4777  166.8279 C.3     1  UNL1        0.0001
     22 C         138.2993  143.2887  164.3594 C.3     1  UNL1        0.0512
     23 C         137.6300  144.1069  163.2952 C.3     1  UNL1        0.1389
     24 O         137.6734  143.6570  161.8650 O.3     1  UNL1       -0.3819
     25 H         138.5880  143.6894  161.5435 H       1  UNL1        0.2104
@<TRIPOS>BOND
     1    20    21    1
     2    21    19    1
     3    19    18    1
     4    17    18    1
     5    17    22    1
     6    22    23    1
     7    23    24    1
     8    17    15    1
     9    15     1    1
    10     1     2   ar
    11     2     3   ar
    12     3     4    1
    13     3     5   ar
    14     5     6   ar
    15     6     7   ar
    16     7     8   ar
    17     8     9   ar
    18     9    10    1
    19     9    11   ar
    20    11    12   ar
    21    12     1   ar
    22    12     6   ar
    23    24    25    1
    24    15    16    1
    25     4    13    1
    26     4    14    1
@<TRIPOS>MOLECULE
*****
 25 26 0 0 0
SMALL
GASTEIGER

@<TRIPOS>ATOM
      1 C         141.0439  141.1236  166.2701 C.ar    1  UNL1        0.1328
      2 N         139.7859  140.3885  165.9136 N.ar    1  UNL1       -0.1993
      3 C         139.0344  139.6324  166.9689 C.ar    1  UNL1        0.2148
      4 N         137.7763  138.8973  166.6123 N.pl3   1  UNL1       -0.3274
      5 N         139.5408  139.6115  168.3806 N.ar    1  UNL1       -0.2139
      6 C         140.7988  140.3466  168.7372 C.ar    1  UNL1        0.0870
      7 C         141.3052  140.3256  170.1489 C.ar    1  UNL1        0.0216
      8 C         142.5631  141.0607  170.5054 C.ar    1  UNL1        0.0312
      9 C         143.3147  141.8168  169.4502 C.ar    1  UNL1        0.1403
     10 F         144.5727  142.5519  169.8068 F       1  UNL1       -0.2042
     11 C         142.8083  141.8377  168.0385 C.ar    1  UNL1        0.0339
     12 C         141.5503  141.1026  167.6819 C.ar    1  UNL1        0.0514
     13 H         137.4440  138.9111  165.6857 H       1  UNL1        0.1452
     14 H         137.2830  138.4011  167.3049 H       1  UNL1        0.1452
     15 N         141.7954  141.8796  165.2149 N.pl3   1  UNL1       -0.3195
     16 H         141.5593  142.8147  165.0170 H       1  UNL1        0.1481
     17 C         142.9067  141.2110  164.4612 C.3     1  UNL1        0.0729
     18 C         142.6093  140.0483  163.5615 C.3     1  UNL1        0.0196
     19 C         142.9493  138.6546  163.9998 C.3     1  UNL1        0.0017
     20 C         143.7444  138.1976  166.4306 C.3     1  UNL1        0.0000
     21 C         142.6518  138.2162  165.4031 C.3     1  UNL1        0.0001
     22 C         144.3155  141.7052  164.6073 C.3     1  UNL1        0.0512
     23 C         145.4298  141.0230  163.8706 C.3     1  UNL1        0.1389
     24 O         146.4272  141.8358  163.0996 O.3     1  UNL1       -0.3819
     25 H         145.9832  142.2713  162.3553 H       1  UNL1        0.2104
@<TRIPOS>BOND
     1    20    21    1
     2    21    19    1
     3    19    18    1
     4    17    18    1
     5    17    22    1
     6    22    23    1
     7    23    24    1
     8    17    15    1
     9    15     1    1
    10     1     2   ar
    11     2     3   ar
    12     3     4    1
    13     3     5   ar
    14     5     6   ar
    15     6     7   ar
    16     7     8   ar
    17     8     9   ar
    18     9    10    1
    19     9    11   ar
    20    11    12   ar
    21    12     1   ar
    22    12     6   ar
    23    24    25    1
    24    15    16    1
    25     4    13    1
    26     4    14    1
