@<TRIPOS>MOLECULE
*****
 33 36 0 0 0
SMALL
GASTEIGER

@<TRIPOS>ATOM
      1 N         139.2947  140.6752  160.3791 N.am    1  UNL1       -0.2630
      2 C         138.5352  141.9436  160.1256 C.2     1  UNL1        0.2437
      3 O         137.5646  142.4539  161.1490 O.2     1  UNL1       -0.2732
      4 H         139.9318  140.3402  159.7074 H       1  UNL1        0.1568
      5 C         138.7463  142.7016  158.8486 C.3     1  UNL1        0.1557
      6 C         137.8881  142.4108  157.6532 C.3     1  UNL1        0.0271
      7 C         138.0992  143.1689  156.3761 C.3     1  UNL1        0.0034
      8 C         139.1685  144.2177  156.2945 C.3     1  UNL1        0.0192
      9 C         140.0267  144.5084  157.4899 C.3     1  UNL1        0.0963
     10 N         139.8156  143.7504  158.7670 N.3     1  UNL1       -0.1481
     11 S         140.6737  144.0411  159.9623 S.O2    1  UNL1        0.0637
     12 O         141.5930  142.9210  159.5747 O.2     1  UNL1       -0.1528
     13 O         139.7545  145.1613  160.3499 O.2     1  UNL1       -0.1528
     14 C         141.5319  144.3319  161.1577 C.ar    1  UNL1        0.1222
     15 C         140.9960  145.1711  162.2795 C.ar    1  UNL1        0.0196
     16 C         141.8542  145.4619  163.4749 C.ar    1  UNL1       -0.0029
     17 C         143.2484  144.9134  163.5485 C.ar    1  UNL1       -0.0218
     18 C         144.1066  145.2042  164.7439 C.3     1  UNL1        0.0310
     19 C         143.7843  144.0742  162.4267 C.ar    1  UNL1       -0.0029
     20 C         142.9261  143.7834  161.2313 C.ar    1  UNL1        0.0196
     21 C         138.9165  139.3693  164.0147 C.ar    1  UNL1        0.0897
     22 C         138.6012  138.1317  163.2279 C.ar    1  UNL1        0.0572
     23 S         138.7045  138.4703  161.7702 S.2     1  UNL1       -0.0508
     24 C         139.0836  139.9171  161.6561 C.ar    1  UNL1        0.1656
     25 N         139.2146  140.4727  163.0433 N.ar    1  UNL1       -0.2239
     26 C         138.9601  139.7117  168.5014 C.ar    1  UNL1        0.1387
     27 C         137.9008  138.8957  167.8218 C.ar    1  UNL1        0.0369
     28 C         137.8862  138.7815  166.3262 C.ar    1  UNL1        0.0046
     29 C         138.9310  139.4834  165.5103 C.ar    1  UNL1        0.0184
     30 C         139.9903  140.2995  166.1899 C.ar    1  UNL1        0.0046
     31 C         140.0048  140.4136  167.6855 C.ar    1  UNL1        0.0369
     32 C         140.2625  140.0985  170.7159 C.3     1  UNL1        0.2525
     33 O         138.9746  139.8258  169.9970 O.3     1  UNL1       -0.4714
@<TRIPOS>BOND
     1    32    33    1
     2    33    26    1
     3    26    27   ar
     4    27    28   ar
     5    28    29   ar
     6    29    21    1
     7    21    22   ar
     8    22    23   ar
     9    23    24   ar
    10    24     1    1
    11     1     2   am
    12     2     3    2
    13     5     2    1
    14     5     6    1
    15     6     7    1
    16     7     8    1
    17     8     9    1
    18     9    10    1
    19    10    11    1
    20    11    12    2
    21    11    13    2
    22    11    14    1
    23    14    15   ar
    24    15    16   ar
    25    16    17   ar
    26    17    18    1
    27    17    19   ar
    28    19    20   ar
    29    24    25   ar
    30    29    30   ar
    31    30    31   ar
    32    31    26   ar
    33    25    21   ar
    34    10     5    1
    35    20    14   ar
    36     1     4    1
@<TRIPOS>MOLECULE
*****
 33 36 0 0 0
SMALL
GASTEIGER

@<TRIPOS>ATOM
      1 N         139.5230  139.8419  161.3431 N.am    1  UNL1       -0.2630
      2 C         138.4547  140.7801  160.8651 C.2     1  UNL1        0.2437
      3 O         137.3613  141.2094  161.7979 O.2     1  UNL1       -0.2732
      4 H         140.2407  139.5601  160.7309 H       1  UNL1        0.1568
      5 C         138.4799  141.2891  159.4544 C.3     1  UNL1        0.1557
      6 C         137.5786  140.6805  158.4214 C.3     1  UNL1        0.0271
      7 C         137.6037  141.1895  157.0105 C.3     1  UNL1        0.0034
      8 C         138.5303  142.3070  156.6328 C.3     1  UNL1        0.0192
      9 C         139.4316  142.9156  157.6658 C.3     1  UNL1        0.0963
     10 N         139.4064  142.4066  159.0767 N.3     1  UNL1       -0.1481
     11 S         140.3078  143.0151  160.1097 S.O2    1  UNL1        0.0637
     12 O         141.3288  141.9480  159.8474 O.2     1  UNL1       -0.1528
     13 O         139.2868  144.0823  160.3720 O.2     1  UNL1       -0.1528
     14 C         141.2092  143.6237  161.1427 C.ar    1  UNL1        0.1222
     15 C         142.6766  143.3131  161.1343 C.ar    1  UNL1        0.0196
     16 C         143.5780  143.9217  162.1674 C.ar    1  UNL1       -0.0029
     17 C         143.0119  144.8409  163.2088 C.ar    1  UNL1       -0.0218
     18 C         143.9133  145.4495  164.2418 C.3     1  UNL1        0.0310
     19 C         141.5445  145.1515  163.2172 C.ar    1  UNL1       -0.0029
     20 C         140.6431  144.5430  162.1841 C.ar    1  UNL1        0.0196
     21 C         139.8169  139.1676  165.1542 C.ar    1  UNL1        0.0897
     22 C         139.1016  137.9316  164.6955 C.ar    1  UNL1        0.0572
     23 S         138.9045  138.0336  163.2120 S.2     1  UNL1       -0.0508
     24 C         139.4979  139.3328  162.7539 C.ar    1  UNL1        0.1656
     25 N         140.0618  140.0337  163.9542 N.ar    1  UNL1       -0.2239
     26 C         141.0173  140.1120  169.3871 C.ar    1  UNL1        0.1387
     27 C         142.0678  139.8217  168.3566 C.ar    1  UNL1        0.0369
     28 C         141.6677  139.5069  166.9457 C.ar    1  UNL1        0.0046
     29 C         140.2170  139.4824  166.5652 C.ar    1  UNL1        0.0184
     30 C         139.1664  139.7727  167.5957 C.ar    1  UNL1        0.0046
     31 C         139.5666  140.0875  169.0066 C.ar    1  UNL1        0.0369
     32 C         141.7059  141.8435  171.1975 C.3     1  UNL1        0.2525
     33 O         141.4174  140.4268  170.7981 O.3     1  UNL1       -0.4714
@<TRIPOS>BOND
     1    32    33    1
     2    33    26    1
     3    26    27   ar
     4    27    28   ar
     5    28    29   ar
     6    29    21    1
     7    21    22   ar
     8    22    23   ar
     9    23    24   ar
    10    24     1    1
    11     1     2   am
    12     2     3    2
    13     5     2    1
    14     5     6    1
    15     6     7    1
    16     7     8    1
    17     8     9    1
    18     9    10    1
    19    10    11    1
    20    11    12    2
    21    11    13    2
    22    11    14    1
    23    14    15   ar
    24    15    16   ar
    25    16    17   ar
    26    17    18    1
    27    17    19   ar
    28    19    20   ar
    29    24    25   ar
    30    29    30   ar
    31    30    31   ar
    32    31    26   ar
    33    25    21   ar
    34    10     5    1
    35    20    14   ar
    36     1     4    1
@<TRIPOS>MOLECULE
*****
 33 36 0 0 0
SMALL
GASTEIGER

@<TRIPOS>ATOM
      1 N         141.4320  139.6578  160.1609 N.am    1  UNL1       -0.2630
      2 C         141.1141  140.9062  159.3924 C.2     1  UNL1        0.2437
      3 O         139.8877  141.7019  159.7284 O.2     1  UNL1       -0.2732
      4 H         142.2370  139.1356  159.9404 H       1  UNL1        0.1568
      5 C         142.0226  141.3589  158.2881 C.3     1  UNL1        0.1557
      6 C         141.7021  141.0133  156.8641 C.3     1  UNL1        0.0271
      7 C         142.6106  141.4660  155.7596 C.3     1  UNL1        0.0034
      8 C         143.8397  142.2643  156.0793 C.3     1  UNL1        0.0192
      9 C         144.1603  142.6099  157.5033 C.3     1  UNL1        0.0963
     10 N         143.2517  142.1572  158.6077 N.3     1  UNL1       -0.1481
     11 S         143.5723  142.5027  160.0316 S.O2    1  UNL1        0.0637
     12 O         142.9282  143.8453  159.8508 O.2     1  UNL1       -0.1528
     13 O         144.2164  141.1602  160.2126 O.2     1  UNL1       -0.1528
     14 C         143.8928  142.8483  161.4557 C.ar    1  UNL1        0.1222
     15 C         144.8445  141.9935  162.2389 C.ar    1  UNL1        0.0196
     16 C         145.1651  142.3391  163.6630 C.ar    1  UNL1       -0.0029
     17 C         144.5340  143.5395  164.3037 C.ar    1  UNL1       -0.0218
     18 C         144.8546  143.8851  165.7277 C.3     1  UNL1        0.0310
     19 C         143.5823  144.3944  163.5205 C.ar    1  UNL1       -0.0029
     20 C         143.2618  144.0488  162.0964 C.ar    1  UNL1        0.0196
     21 C         139.4887  138.9542  163.4463 C.ar    1  UNL1        0.0897
     22 C         138.7624  138.0626  162.4832 C.ar    1  UNL1        0.0572
     23 S         139.4020  138.2176  161.1353 S.2     1  UNL1       -0.0508
     24 C         140.5235  139.2051  161.2652 C.ar    1  UNL1        0.1656
     25 N         140.5771  139.6603  162.6935 N.ar    1  UNL1       -0.2239
     26 C         138.5645  139.4278  167.8248 C.ar    1  UNL1        0.1387
     27 C         139.5762  140.3216  167.1709 C.ar    1  UNL1        0.0369
     28 C         139.8842  140.1637  165.7114 C.ar    1  UNL1        0.0046
     29 C         139.1806  139.1121  164.9058 C.ar    1  UNL1        0.0184
     30 C         138.1690  138.2183  165.5597 C.ar    1  UNL1        0.0046
     31 C         137.8609  138.3762  167.0192 C.ar    1  UNL1        0.0369
     32 C         139.0490  140.5481  170.1183 C.3     1  UNL1        0.2525
     33 O         138.2565  139.5856  169.2843 O.3     1  UNL1       -0.4714
@<TRIPOS>BOND
     1    32    33    1
     2    33    26    1
     3    26    27   ar
     4    27    28   ar
     5    28    29   ar
     6    29    21    1
     7    21    22   ar
     8    22    23   ar
     9    23    24   ar
    10    24     1    1
    11     1     2   am
    12     2     3    2
    13     5     2    1
    14     5     6    1
    15     6     7    1
    16     7     8    1
    17     8     9    1
    18     9    10    1
    19    10    11    1
    20    11    12    2
    21    11    13    2
    22    11    14    1
    23    14    15   ar
    24    15    16   ar
    25    16    17   ar
    26    17    18    1
    27    17    19   ar
    28    19    20   ar
    29    24    25   ar
    30    29    30   ar
    31    30    31   ar
    32    31    26   ar
    33    25    21   ar
    34    10     5    1
    35    20    14   ar
    36     1     4    1
@<TRIPOS>MOLECULE
*****
 33 36 0 0 0
SMALL
GASTEIGER

@<TRIPOS>ATOM
      1 N         140.4547  139.6245  165.7796 N.am    1  UNL1       -0.2630
      2 C         141.7998  139.4299  166.4143 C.2     1  UNL1        0.2437
      3 O         142.8447  138.6074  165.7202 O.2     1  UNL1       -0.2732
      4 H         139.7689  140.1643  166.2352 H       1  UNL1        0.1568
      5 C         142.1000  140.0577  167.7430 C.3     1  UNL1        0.1557
      6 C         142.4885  139.1970  168.9085 C.3     1  UNL1        0.0271
      7 C         142.7887  139.8249  170.2374 C.3     1  UNL1        0.0034
      8 C         142.7005  141.3133  170.4007 C.3     1  UNL1        0.0192
      9 C         142.3120  142.1740  169.2352 C.3     1  UNL1        0.0963
     10 N         142.0118  141.5461  167.9063 N.3     1  UNL1       -0.1481
     11 S         141.6234  142.4068  166.7409 S.O2    1  UNL1        0.0637
     12 O         143.0635  142.5032  166.3322 O.2     1  UNL1       -0.1528
     13 O         140.1834  142.3104  167.1495 O.2     1  UNL1       -0.1528
     14 C         141.2350  143.2675  165.5754 C.ar    1  UNL1        0.1222
     15 C         142.2528  143.6206  164.5317 C.ar    1  UNL1        0.0196
     16 C         141.8644  144.4813  163.3662 C.ar    1  UNL1       -0.0029
     17 C         140.4582  144.9889  163.2444 C.ar    1  UNL1       -0.0218
     18 C         140.0697  145.8496  162.0789 C.3     1  UNL1        0.0310
     19 C         139.4403  144.6357  164.2881 C.ar    1  UNL1       -0.0029
     20 C         139.8288  143.7750  165.4536 C.ar    1  UNL1        0.0196
     21 C         140.2565  138.4159  162.0965 C.ar    1  UNL1        0.0897
     22 C         139.1283  137.6453  162.7155 C.ar    1  UNL1        0.0572
     23 S         139.0652  138.0043  164.1706 S.2     1  UNL1       -0.0508
     24 C         140.1544  138.9967  164.4508 C.ar    1  UNL1        0.1656
     25 N         140.8907  139.2511  163.1690 N.ar    1  UNL1       -0.2239
     26 C         141.5173  138.2511  157.7799 C.ar    1  UNL1        0.1387
     27 C         142.5409  138.1036  158.8663 C.ar    1  UNL1        0.0369
     28 C         142.1207  138.1586  160.3052 C.ar    1  UNL1        0.0046
     29 C         140.6768  138.3610  160.6576 C.ar    1  UNL1        0.0184
     30 C         139.6532  138.5084  159.5711 C.ar    1  UNL1        0.0046
     31 C         140.0735  138.4535  158.1323 C.ar    1  UNL1        0.0369
     32 C         142.9950  137.2257  155.9051 C.3     1  UNL1        0.2525
     33 O         141.9376  138.1961  156.3410 O.3     1  UNL1       -0.4714
@<TRIPOS>BOND
     1    32    33    1
     2    33    26    1
     3    26    27   ar
     4    27    28   ar
     5    28    29   ar
     6    29    21    1
     7    21    22   ar
     8    22    23   ar
     9    23    24   ar
    10    24     1    1
    11     1     2   am
    12     2     3    2
    13     5     2    1
    14     5     6    1
    15     6     7    1
    16     7     8    1
    17     8     9    1
    18     9    10    1
    19    10    11    1
    20    11    12    2
    21    11    13    2
    22    11    14    1
    23    14    15   ar
    24    15    16   ar
    25    16    17   ar
    26    17    18    1
    27    17    19   ar
    28    19    20   ar
    29    24    25   ar
    30    29    30   ar
    31    30    31   ar
    32    31    26   ar
    33    25    21   ar
    34    10     5    1
    35    20    14   ar
    36     1     4    1
@<TRIPOS>MOLECULE
*****
 33 36 0 0 0
SMALL
GASTEIGER

@<TRIPOS>ATOM
      1 N         143.1085  140.0883  164.8272 N.am    1  UNL1       -0.2630
      2 C         142.1522  139.5511  165.8504 C.2     1  UNL1        0.2437
      3 O         141.1580  138.4956  165.4665 O.2     1  UNL1       -0.2732
      4 H         143.7611  140.7811  165.0792 H       1  UNL1        0.1568
      5 C         142.1902  140.0694  167.2575 C.3     1  UNL1        0.1557
      6 C         142.5996  139.1624  168.3800 C.3     1  UNL1        0.0271
      7 C         142.6376  139.6808  169.7871 C.3     1  UNL1        0.0034
      8 C         142.2663  141.1059  170.0717 C.3     1  UNL1        0.0192
      9 C         141.8570  142.0128  168.9492 C.3     1  UNL1        0.0963
     10 N         141.8190  141.4945  167.5421 N.3     1  UNL1       -0.1481
     11 S         141.4097  142.4014  166.4197 S.O2    1  UNL1        0.0637
     12 O         142.8472  142.7598  166.1851 O.2     1  UNL1       -0.1528
     13 O         139.9721  142.0430  166.6541 O.2     1  UNL1       -0.1528
     14 C         141.0004  143.3083  165.2972 C.ar    1  UNL1        0.1222
     15 C         139.6026  143.8498  165.2421 C.ar    1  UNL1        0.0196
     16 C         139.1933  144.7567  164.1196 C.ar    1  UNL1       -0.0029
     17 C         140.1818  145.1222  163.0522 C.ar    1  UNL1       -0.0218
     18 C         139.7725  146.0291  161.9297 C.3     1  UNL1        0.0310
     19 C         141.5796  144.5808  163.1073 C.ar    1  UNL1       -0.0029
     20 C         141.9889  143.6738  164.2298 C.ar    1  UNL1        0.0196
     21 C         142.3038  139.0094  161.1866 C.ar    1  UNL1        0.0897
     22 C         143.7204  138.5356  161.3229 C.ar    1  UNL1        0.0572
     23 S         144.1943  138.8821  162.7033 S.2     1  UNL1       -0.0508
     24 C         143.0706  139.5700  163.4201 C.ar    1  UNL1        0.1656
     25 N         141.9021  139.6487  162.4828 N.ar    1  UNL1       -0.2239
     26 C         139.7135  138.5871  157.5312 C.ar    1  UNL1        0.1387
     27 C         139.1844  139.2854  158.7487 C.ar    1  UNL1        0.0369
     28 C         140.0478  139.4262  159.9672 C.ar    1  UNL1        0.0046
     29 C         141.4403  138.8686  159.9682 C.ar    1  UNL1        0.0184
     30 C         141.9694  138.1703  158.7507 C.ar    1  UNL1        0.0046
     31 C         141.1060  138.0295  157.5322 C.ar    1  UNL1        0.0369
     32 C         139.0115  137.2575  155.4124 C.3     1  UNL1        0.2525
     33 O         138.8500  138.4463  156.3128 O.3     1  UNL1       -0.4714
@<TRIPOS>BOND
     1    32    33    1
     2    33    26    1
     3    26    27   ar
     4    27    28   ar
     5    28    29   ar
     6    29    21    1
     7    21    22   ar
     8    22    23   ar
     9    23    24   ar
    10    24     1    1
    11     1     2   am
    12     2     3    2
    13     5     2    1
    14     5     6    1
    15     6     7    1
    16     7     8    1
    17     8     9    1
    18     9    10    1
    19    10    11    1
    20    11    12    2
    21    11    13    2
    22    11    14    1
    23    14    15   ar
    24    15    16   ar
    25    16    17   ar
    26    17    18    1
    27    17    19   ar
    28    19    20   ar
    29    24    25   ar
    30    29    30   ar
    31    30    31   ar
    32    31    26   ar
    33    25    21   ar
    34    10     5    1
    35    20    14   ar
    36     1     4    1
@<TRIPOS>MOLECULE
*****
 33 36 0 0 0
SMALL
GASTEIGER

@<TRIPOS>ATOM
      1 N         142.9436  141.0149  161.1709 N.am    1  UNL1       -0.2630
      2 C         143.7478  142.0984  160.5157 C.2     1  UNL1        0.2437
      3 O         144.9167  142.7039  161.2347 O.2     1  UNL1       -0.2732
      4 H         142.1764  140.6175  160.6990 H       1  UNL1        0.1568
      5 C         143.3830  142.5763  159.1415 C.3     1  UNL1        0.1557
      6 C         144.3174  142.3389  157.9923 C.3     1  UNL1        0.0271
      7 C         143.9526  142.8169  156.6180 C.3     1  UNL1        0.0034
      8 C         142.6535  143.5321  156.3930 C.3     1  UNL1        0.0192
      9 C         141.7191  143.7695  157.5421 C.3     1  UNL1        0.0963
     10 N         142.0839  143.2916  158.9164 N.3     1  UNL1       -0.1481
     11 S         141.1496  143.5289  160.0655 S.O2    1  UNL1        0.0637
     12 O         141.8524  144.8185  160.3706 O.2     1  UNL1       -0.1528
     13 O         140.4467  142.2394  159.7606 O.2     1  UNL1       -0.1528
     14 C         140.2152  143.7663  161.2147 C.ar    1  UNL1        0.1222
     15 C         138.9120  143.0271  161.2868 C.ar    1  UNL1        0.0196
     16 C         137.9776  143.2645  162.4360 C.ar    1  UNL1       -0.0029
     17 C         138.3464  144.2411  163.5131 C.ar    1  UNL1       -0.0218
     18 C         137.4120  144.4785  164.6623 C.3     1  UNL1        0.0310
     19 C         139.6496  144.9804  163.4410 C.ar    1  UNL1       -0.0029
     20 C         140.5840  144.7430  162.2918 C.ar    1  UNL1        0.0196
     21 C         143.3850  140.2899  164.9584 C.ar    1  UNL1        0.0897
     22 C         144.3540  139.3129  164.3614 C.ar    1  UNL1        0.0572
     23 S         144.3066  139.4655  162.8699 S.2     1  UNL1       -0.0508
     24 C         143.3083  140.5369  162.5452 C.ar    1  UNL1        0.1656
     25 N         142.7388  141.0464  163.8359 N.ar    1  UNL1       -0.2239
     26 C         142.5616  140.8529  169.3465 C.ar    1  UNL1        0.1387
     27 C         142.8661  142.0404  168.4822 C.ar    1  UNL1        0.0369
     28 C         143.1406  141.8527  167.0195 C.ar    1  UNL1        0.0046
     29 C         143.1105  140.4776  166.4211 C.ar    1  UNL1        0.0184
     30 C         142.8060  139.2901  167.2854 C.ar    1  UNL1        0.0046
     31 C         142.5315  139.4778  168.7481 C.ar    1  UNL1        0.0369
     32 C         140.9566  141.5651  171.2613 C.3     1  UNL1        0.2525
     33 O         142.2871  141.0405  170.8092 O.3     1  UNL1       -0.4714
@<TRIPOS>BOND
     1    32    33    1
     2    33    26    1
     3    26    27   ar
     4    27    28   ar
     5    28    29   ar
     6    29    21    1
     7    21    22   ar
     8    22    23   ar
     9    23    24   ar
    10    24     1    1
    11     1     2   am
    12     2     3    2
    13     5     2    1
    14     5     6    1
    15     6     7    1
    16     7     8    1
    17     8     9    1
    18     9    10    1
    19    10    11    1
    20    11    12    2
    21    11    13    2
    22    11    14    1
    23    14    15   ar
    24    15    16   ar
    25    16    17   ar
    26    17    18    1
    27    17    19   ar
    28    19    20   ar
    29    24    25   ar
    30    29    30   ar
    31    30    31   ar
    32    31    26   ar
    33    25    21   ar
    34    10     5    1
    35    20    14   ar
    36     1     4    1
@<TRIPOS>MOLECULE
*****
 33 36 0 0 0
SMALL
GASTEIGER

@<TRIPOS>ATOM
      1 N         141.3301  143.0666  165.5079 N.am    1  UNL1       -0.2630
      2 C         142.5802  142.4409  166.0518 C.2     1  UNL1        0.2437
      3 O         143.8609  142.5270  165.2755 O.2     1  UNL1       -0.2732
      4 H         140.4896  143.0101  166.0174 H       1  UNL1        0.1568
      5 C         142.5497  141.7293  167.3718 C.3     1  UNL1        0.1557
      6 C         143.3507  142.2550  168.5259 C.3     1  UNL1        0.0271
      7 C         143.3202  141.5433  169.8461 C.3     1  UNL1        0.0034
      8 C         142.4886  140.3060  170.0120 C.3     1  UNL1        0.0192
      9 C         141.6876  139.7803  168.8579 C.3     1  UNL1        0.0963
     10 N         141.7181  140.4920  167.5377 N.3     1  UNL1       -0.1481
     11 S         140.9171  139.9663  166.3837 S.O2    1  UNL1        0.0637
     12 O         139.7534  140.8136  166.8055 O.2     1  UNL1       -0.1528
     13 O         142.0808  139.1190  165.9619 O.2     1  UNL1       -0.1528
     14 C         140.1161  139.4406  165.2296 C.ar    1  UNL1        0.1222
     15 C         139.1139  140.3243  164.5479 C.ar    1  UNL1        0.0196
     16 C         138.3128  139.7986  163.3938 C.ar    1  UNL1       -0.0029
     17 C         138.5140  138.3892  162.9213 C.ar    1  UNL1       -0.0218
     18 C         137.7129  137.8635  161.7672 C.3     1  UNL1        0.0310
     19 C         139.5162  137.5055  163.6030 C.ar    1  UNL1       -0.0029
     20 C         140.3172  138.0312  164.7571 C.ar    1  UNL1        0.0196
     21 C         141.0148  144.3147  161.8462 C.ar    1  UNL1        0.0897
     22 C         141.8001  145.4320  162.4667 C.ar    1  UNL1        0.0572
     23 S         142.0138  145.1004  163.9139 S.2     1  UNL1       -0.0508
     24 C         141.3606  143.7782  164.1879 C.ar    1  UNL1        0.1656
     25 N         140.7431  143.2926  162.9100 N.ar    1  UNL1       -0.2239
     26 C         139.7039  144.0717  157.5482 C.ar    1  UNL1        0.1387
     27 C         139.2457  143.0361  158.5318 C.ar    1  UNL1        0.0369
     28 C         139.6826  143.1171  159.9644 C.ar    1  UNL1        0.0046
     29 C         140.5778  144.2337  160.4135 C.ar    1  UNL1        0.0184
     30 C         141.0360  145.2694  159.4300 C.ar    1  UNL1        0.0046
     31 C         140.5991  145.1884  157.9973 C.ar    1  UNL1        0.0369
     32 C         138.5231  145.1346  155.4925 C.3     1  UNL1        0.2525
     33 O         139.2669  143.9907  156.1156 O.3     1  UNL1       -0.4714
@<TRIPOS>BOND
     1    32    33    1
     2    33    26    1
     3    26    27   ar
     4    27    28   ar
     5    28    29   ar
     6    29    21    1
     7    21    22   ar
     8    22    23   ar
     9    23    24   ar
    10    24     1    1
    11     1     2   am
    12     2     3    2
    13     5     2    1
    14     5     6    1
    15     6     7    1
    16     7     8    1
    17     8     9    1
    18     9    10    1
    19    10    11    1
    20    11    12    2
    21    11    13    2
    22    11    14    1
    23    14    15   ar
    24    15    16   ar
    25    16    17   ar
    26    17    18    1
    27    17    19   ar
    28    19    20   ar
    29    24    25   ar
    30    29    30   ar
    31    30    31   ar
    32    31    26   ar
    33    25    21   ar
    34    10     5    1
    35    20    14   ar
    36     1     4    1
@<TRIPOS>MOLECULE
*****
 33 36 0 0 0
SMALL
GASTEIGER

@<TRIPOS>ATOM
      1 N         142.0652  140.0128  161.1219 N.am    1  UNL1       -0.2630
      2 C         141.2239  138.8948  160.5812 C.2     1  UNL1        0.2437
      3 O         141.0441  137.6377  161.3795 O.2     1  UNL1       -0.2732
      4 H         142.1833  140.8378  160.5978 H       1  UNL1        0.1568
      5 C         140.5626  139.0339  159.2421 C.3     1  UNL1        0.1557
      6 C         140.9774  138.1478  158.1051 C.3     1  UNL1        0.0271
      7 C         140.3160  138.2869  156.7659 C.3     1  UNL1        0.0034
      8 C         139.2398  139.3120  156.5638 C.3     1  UNL1        0.0192
      9 C         138.8249  140.1981  157.7008 C.3     1  UNL1        0.0963
     10 N         139.4863  140.0590  159.0400 N.3     1  UNL1       -0.1481
     11 S         139.0715  140.9450  160.1770 S.O2    1  UNL1        0.0637
     12 O         140.1003  141.9557  159.7647 O.2     1  UNL1       -0.1528
     13 O         138.0427  139.9343  160.5893 O.2     1  UNL1       -0.1528
     14 C         138.6566  141.8311  161.3140 C.ar    1  UNL1        0.1222
     15 C         139.1165  143.2581  161.3591 C.ar    1  UNL1        0.0196
     16 C         138.7017  144.1442  162.4962 C.ar    1  UNL1       -0.0029
     17 C         137.8269  143.6032  163.5880 C.ar    1  UNL1       -0.0218
     18 C         137.4120  144.4893  164.7250 C.3     1  UNL1        0.0310
     19 C         137.3670  142.1762  163.5429 C.ar    1  UNL1       -0.0029
     20 C         137.7819  141.2901  162.4058 C.ar    1  UNL1        0.0196
     21 C         143.1550  139.9903  164.8471 C.ar    1  UNL1        0.0897
     22 C         144.3338  139.3293  164.1962 C.ar    1  UNL1        0.0572
     23 S         144.0691  139.2573  162.7215 S.2     1  UNL1       -0.0508
     24 C         142.7266  139.8737  162.4609 C.ar    1  UNL1        0.1656
     25 N         142.1618  140.3267  163.7746 N.ar    1  UNL1       -0.2239
     26 C         142.6817  140.8184  169.2448 C.ar    1  UNL1        0.1387
     27 C         142.8931  141.9528  168.2865 C.ar    1  UNL1        0.0369
     28 C         143.0508  141.6767  166.8206 C.ar    1  UNL1        0.0046
     29 C         142.9973  140.2663  166.3130 C.ar    1  UNL1        0.0184
     30 C         142.7859  139.1319  167.2713 C.ar    1  UNL1        0.0046
     31 C         142.6281  139.4079  168.7372 C.ar    1  UNL1        0.0369
     32 C         141.2625  141.7231  171.2240 C.3     1  UNL1        0.2525
     33 O         142.5239  141.0944  170.7107 O.3     1  UNL1       -0.4714
@<TRIPOS>BOND
     1    32    33    1
     2    33    26    1
     3    26    27   ar
     4    27    28   ar
     5    28    29   ar
     6    29    21    1
     7    21    22   ar
     8    22    23   ar
     9    23    24   ar
    10    24     1    1
    11     1     2   am
    12     2     3    2
    13     5     2    1
    14     5     6    1
    15     6     7    1
    16     7     8    1
    17     8     9    1
    18     9    10    1
    19    10    11    1
    20    11    12    2
    21    11    13    2
    22    11    14    1
    23    14    15   ar
    24    15    16   ar
    25    16    17   ar
    26    17    18    1
    27    17    19   ar
    28    19    20   ar
    29    24    25   ar
    30    29    30   ar
    31    30    31   ar
    32    31    26   ar
    33    25    21   ar
    34    10     5    1
    35    20    14   ar
    36     1     4    1
@<TRIPOS>MOLECULE
*****
 33 36 0 0 0
SMALL
GASTEIGER

@<TRIPOS>ATOM
      1 N         142.0425  143.8703  160.8465 N.am    1  UNL1       -0.2630
      2 C         140.9141  144.7645  160.4253 C.2     1  UNL1        0.2437
      3 O         140.2265  145.6317  161.4377 O.2     1  UNL1       -0.2732
      4 H         142.4938  143.3011  160.1820 H       1  UNL1        0.1568
      5 C         140.4735  144.7913  158.9918 C.3     1  UNL1        0.1557
      6 C         140.7574  145.9946  158.1424 C.3     1  UNL1        0.0271
      7 C         140.3168  146.0215  156.7088 C.3     1  UNL1        0.0034
      8 C         139.5923  144.8451  156.1246 C.3     1  UNL1        0.0192
      9 C         139.3084  143.6418  156.9740 C.3     1  UNL1        0.0963
     10 N         139.7490  143.6150  158.4077 N.3     1  UNL1       -0.1481
     11 S         139.4652  142.4117  159.2570 S.O2    1  UNL1        0.0637
     12 O         138.1486  143.0070  159.6602 O.2     1  UNL1       -0.1528
     13 O         140.7816  141.8164  158.8539 O.2     1  UNL1       -0.1528
     14 C         139.1812  141.2084  160.1065 C.ar    1  UNL1        0.1222
     15 C         138.3904  141.3539  161.3727 C.ar    1  UNL1        0.0196
     16 C         138.1065  140.1506  162.2221 C.ar    1  UNL1       -0.0029
     17 C         138.6134  138.8018  161.8053 C.ar    1  UNL1       -0.0218
     18 C         138.3295  137.5985  162.6547 C.3     1  UNL1        0.0310
     19 C         139.4043  138.6563  160.5391 C.ar    1  UNL1       -0.0029
     20 C         139.6882  139.8596  159.6897 C.ar    1  UNL1        0.0196
     21 C         142.5715  143.3721  164.6593 C.ar    1  UNL1        0.0897
     22 C         143.7509  144.2318  164.3129 C.ar    1  UNL1        0.0572
     23 S         143.6962  144.5231  162.8425 S.2     1  UNL1       -0.0508
     24 C         142.4831  143.8434  162.2800 C.ar    1  UNL1        0.1656
     25 N         141.7880  143.1320  163.4029 N.ar    1  UNL1       -0.2239
     26 C         141.5614  141.7907  168.7494 C.ar    1  UNL1        0.1387
     27 C         140.4658  142.2261  167.8220 C.ar    1  UNL1        0.0369
     28 C         140.8025  142.7533  166.4587 C.ar    1  UNL1        0.0046
     29 C         142.2348  142.8449  166.0226 C.ar    1  UNL1        0.0184
     30 C         143.3304  142.4094  166.9500 C.ar    1  UNL1        0.0046
     31 C         142.9937  141.8823  168.3134 C.ar    1  UNL1        0.0369
     32 C         140.1506  140.2288  170.2726 C.3     1  UNL1        0.2525
     33 O         141.2247  141.2635  170.1127 O.3     1  UNL1       -0.4714
@<TRIPOS>BOND
     1    32    33    1
     2    33    26    1
     3    26    27   ar
     4    27    28   ar
     5    28    29   ar
     6    29    21    1
     7    21    22   ar
     8    22    23   ar
     9    23    24   ar
    10    24     1    1
    11     1     2   am
    12     2     3    2
    13     5     2    1
    14     5     6    1
    15     6     7    1
    16     7     8    1
    17     8     9    1
    18     9    10    1
    19    10    11    1
    20    11    12    2
    21    11    13    2
    22    11    14    1
    23    14    15   ar
    24    15    16   ar
    25    16    17   ar
    26    17    18    1
    27    17    19   ar
    28    19    20   ar
    29    24    25   ar
    30    29    30   ar
    31    30    31   ar
    32    31    26   ar
    33    25    21   ar
    34    10     5    1
    35    20    14   ar
    36     1     4    1
