@<TRIPOS>MOLECULE
*****
 49 55 0 0 0
SMALL
GASTEIGER

@<TRIPOS>ATOM
      1 C         141.7078  141.7842  164.8847 C.3     1  UNL1        0.0236
      2 C         141.7872  140.8379  163.7236 C.3     1  UNL1        0.0257
      3 C         141.9161  141.3724  162.3280 C.3     1  UNL1        0.0940
      4 N         141.9656  142.8531  162.0935 N.am    1  UNL1       -0.2759
      5 C         142.0945  143.3875  160.6978 C.2     1  UNL1        0.2535
      6 O         142.1440  144.8683  160.4633 O.2     1  UNL1       -0.2697
      7 C         141.8862  143.7994  163.2546 C.3     1  UNL1        0.0940
      8 C         141.7572  143.2650  164.6502 C.3     1  UNL1        0.0257
      9 C         142.1740  142.4412  159.5368 C.ar    1  UNL1        0.1096
     10 C         140.9186  141.9819  158.8562 C.ar    1  UNL1        0.1467
     11 F         139.5837  142.4689  159.3368 F       1  UNL1       -0.2039
     12 C         140.9982  141.0355  157.6952 C.ar    1  UNL1        0.0312
     13 C         142.3330  140.5484  157.2146 C.ar    1  UNL1        0.0204
     14 C         143.5884  141.0078  157.8951 C.ar    1  UNL1        0.0921
     15 C         143.5088  141.9541  159.0562 C.ar    1  UNL1        0.1611
     16 F         144.7642  142.4134  159.7367 F       1  UNL1       -0.2026
     17 N         144.9232  140.5207  157.4146 N.pl3   1  UNL1       -0.2165
     18 H         145.5969  140.2119  158.0626 H       1  UNL1        0.1734
     19 S         145.2315  140.5042  155.9467 S.O2    1  UNL1        0.0559
     20 C         145.5399  140.4877  154.4789 C.3     1  UNL1        0.1996
     21 O         145.3792  141.9968  155.9610 O.2     1  UNL1       -0.1544
     22 O         145.0839  139.0116  155.9324 O.2     1  UNL1       -0.1544
     23 C         141.5979  142.2756  166.2978 C.ar    1  UNL1       -0.0204
     24 C         140.3185  142.8924  166.7799 C.ar    1  UNL1       -0.0041
     25 C         140.2086  143.3838  168.1930 C.ar    1  UNL1        0.0020
     26 C         141.3782  143.2583  169.1237 C.ar    1  UNL1        0.0296
     27 C         142.6577  142.6415  168.6415 C.ar    1  UNL1        0.1398
     28 F         143.8272  142.5160  169.5722 F       1  UNL1       -0.2042
     29 C         142.7674  142.1501  167.2284 C.ar    1  UNL1        0.0254
     30 C         141.6201  140.4742  165.6100 C.3     1  UNL1        0.0215
     31 C         140.3869  139.6292  165.4859 C.3     1  UNL1        0.0723
     32 C         140.3328  139.5928  165.3432 C.3     1  UNL1        0.0893
     33 C         139.3168  140.6790  165.5383 C.3     1  UNL1        0.0386
     34 C         138.3135  140.9697  164.4618 C.3     1  UNL1        0.0594
     35 C         137.5429  140.9106  163.1762 C.3     1  UNL1        0.0174
     36 C         138.1367  139.8242  162.3294 C.3     1  UNL1        0.0174
     37 C         139.2744  139.2120  163.0915 C.3     1  UNL1        0.0594
     38 C         140.3454  138.7974  164.0715 C.3     1  UNL1        0.0386
     39 N         139.3837  139.9200  164.4094 N.3     1  UNL1       -0.2751
     40 C         143.0129  138.5081  164.7634 C.3     1  UNL1        0.0718
     41 C         142.7161  138.7517  166.2134 C.ar    1  UNL1        0.1207
     42 N         143.3683  138.6202  167.5578 N.ar    1  UNL1       -0.2309
     43 C         142.3914  139.0892  168.5949 C.ar    1  UNL1        0.0983
     44 C         142.4833  139.1870  170.0888 C.ar    1  UNL1        0.0206
     45 C         141.3191  139.7062  170.8794 C.ar    1  UNL1        0.0016
     46 C         140.0630  140.1276  170.1760 C.ar    1  UNL1        0.0016
     47 C         139.9712  140.0299  168.6821 C.ar    1  UNL1        0.0188
     48 C         141.1354  139.5106  167.8915 C.ar    1  UNL1        0.0785
     49 N         141.3361  139.3021  166.4197 N.ar    1  UNL1       -0.3167
@<TRIPOS>BOND
     1    40    41    1
     2    41    42   ar
     3    42    43   ar
     4    43    44   ar
     5    44    45   ar
     6    45    46   ar
     7    46    47   ar
     8    47    48   ar
     9    48    49   ar
    10    49    32    1
    11    32    33    1
    12    33    34    1
    13    34    35    1
    14    35    36    1
    15    36    37    1
    16    37    38    1
    17    37    39    1
    18    39    31    1
    19    31    30    1
    20    30     1    1
    21     1    23    1
    22    23    24   ar
    23    24    25   ar
    24    25    26   ar
    25    26    27   ar
    26    27    28    1
    27    27    29   ar
    28     1     2    1
    29     2     3    1
    30     3     4    1
    31     4     5   am
    32     5     6    2
    33     5     9    1
    34     9    10   ar
    35    10    11    1
    36    10    12   ar
    37    12    13   ar
    38    13    14   ar
    39    14    17    1
    40    17    19    1
    41    19    20    1
    42    19    21    2
    43    19    22    2
    44    14    15   ar
    45    15    16    1
    46     4     7    1
    47     7     8    1
    48    49    41   ar
    49    38    32    1
    50     8     1    1
    51    48    43   ar
    52    39    34    1
    53    29    23   ar
    54    15     9   ar
    55    17    18    1
@<TRIPOS>MOLECULE
*****
 49 55 0 0 0
SMALL
GASTEIGER

@<TRIPOS>ATOM
      1 C         140.8667  141.0278  161.0879 C.3     1  UNL1        0.0236
      2 C         140.1851  140.0203  160.2102 C.3     1  UNL1        0.0257
      3 C         140.9151  139.4284  159.0411 C.3     1  UNL1        0.0940
      4 N         142.3266  139.8439  158.7497 N.am    1  UNL1       -0.2759
      5 C         143.0565  139.2520  157.5805 C.2     1  UNL1        0.2535
      6 O         144.4680  139.6676  157.2891 O.2     1  UNL1       -0.2697
      7 C         143.0081  140.8515  159.6273 C.3     1  UNL1        0.0940
      8 C         142.2783  141.4434  160.7964 C.3     1  UNL1        0.0257
      9 C         142.3748  138.2445  156.7029 C.ar    1  UNL1        0.1096
     10 C         141.5744  138.7005  155.5191 C.ar    1  UNL1        0.1467
     11 F         141.4556  140.1641  155.2130 F       1  UNL1       -0.2039
     12 C         140.8928  137.6929  154.6416 C.ar    1  UNL1        0.0312
     13 C         141.0116  136.2293  154.9478 C.ar    1  UNL1        0.0204
     14 C         141.8120  135.7733  156.1315 C.ar    1  UNL1        0.0921
     15 C         142.4937  136.7809  157.0091 C.ar    1  UNL1        0.1611
     16 F         143.2941  136.3248  158.1929 F       1  UNL1       -0.2026
     17 N         141.9309  134.3097  156.4377 N.pl3   1  UNL1       -0.2165
     18 H         141.6751  133.9702  157.3257 H       1  UNL1        0.1734
     19 S         142.4393  133.3633  155.3909 S.O2    1  UNL1        0.0559
     20 C         142.9478  132.4169  154.3441 C.3     1  UNL1        0.1996
     21 O         143.8016  133.9829  155.4925 O.2     1  UNL1       -0.1544
     22 O         141.0771  132.7437  155.2892 O.2     1  UNL1       -0.1544
     23 C         141.0844  142.0095  162.2011 C.ar    1  UNL1       -0.0204
     24 C         141.3612  141.5181  163.5910 C.ar    1  UNL1       -0.0041
     25 C         141.5789  142.4997  164.7041 C.ar    1  UNL1        0.0020
     26 C         141.5198  143.9728  164.4273 C.ar    1  UNL1        0.0296
     27 C         141.2429  144.4642  163.0373 C.ar    1  UNL1        0.1398
     28 F         141.1838  145.9372  162.7606 F       1  UNL1       -0.2042
     29 C         141.0253  143.4825  161.9243 C.ar    1  UNL1        0.0254
     30 C         139.5309  140.9532  161.7659 C.3     1  UNL1        0.0215
     31 C         138.3047  141.4589  161.0652 C.3     1  UNL1        0.0723
     32 C         138.2701  141.4023  160.9229 C.3     1  UNL1        0.0893
     33 C         138.8373  142.6747  160.3664 C.3     1  UNL1        0.0386
     34 C         138.8601  142.9002  158.8836 C.3     1  UNL1        0.0594
     35 C         138.6836  142.7010  157.4074 C.3     1  UNL1        0.0174
     36 C         138.0419  141.3621  157.1939 C.3     1  UNL1        0.0174
     37 C         137.8218  140.7338  158.5381 C.3     1  UNL1        0.0594
     38 C         137.7259  140.3557  159.9966 C.3     1  UNL1        0.0386
     39 N         138.3276  141.6844  159.5825 N.3     1  UNL1       -0.2751
     40 C         137.7230  143.5672  162.8489 C.3     1  UNL1        0.0718
     41 C         137.9786  142.2177  163.4518 C.ar    1  UNL1        0.1207
     42 N         138.0544  141.5549  164.7953 N.ar    1  UNL1       -0.2309
     43 C         138.3700  140.1044  164.5795 C.ar    1  UNL1        0.0983
     44 C         138.5642  138.9663  165.5370 C.ar    1  UNL1        0.0206
     45 C         138.8777  137.5945  165.0177 C.ar    1  UNL1        0.0016
     46 C         138.9969  137.3608  163.5408 C.ar    1  UNL1        0.0016
     47 C         138.8027  138.4989  162.5833 C.ar    1  UNL1        0.0188
     48 C         138.4893  139.8707  163.1026 C.ar    1  UNL1        0.0785
     49 N         138.2473  141.1768  162.4057 N.ar    1  UNL1       -0.3167
@<TRIPOS>BOND
     1    40    41    1
     2    41    42   ar
     3    42    43   ar
     4    43    44   ar
     5    44    45   ar
     6    45    46   ar
     7    46    47   ar
     8    47    48   ar
     9    48    49   ar
    10    49    32    1
    11    32    33    1
    12    33    34    1
    13    34    35    1
    14    35    36    1
    15    36    37    1
    16    37    38    1
    17    37    39    1
    18    39    31    1
    19    31    30    1
    20    30     1    1
    21     1    23    1
    22    23    24   ar
    23    24    25   ar
    24    25    26   ar
    25    26    27   ar
    26    27    28    1
    27    27    29   ar
    28     1     2    1
    29     2     3    1
    30     3     4    1
    31     4     5   am
    32     5     6    2
    33     5     9    1
    34     9    10   ar
    35    10    11    1
    36    10    12   ar
    37    12    13   ar
    38    13    14   ar
    39    14    17    1
    40    17    19    1
    41    19    20    1
    42    19    21    2
    43    19    22    2
    44    14    15   ar
    45    15    16    1
    46     4     7    1
    47     7     8    1
    48    49    41   ar
    49    38    32    1
    50     8     1    1
    51    48    43   ar
    52    39    34    1
    53    29    23   ar
    54    15     9   ar
    55    17    18    1
@<TRIPOS>MOLECULE
*****
 49 55 0 0 0
SMALL
GASTEIGER

@<TRIPOS>ATOM
      1 C         140.8405  141.8385  161.6977 C.3     1  UNL1        0.0236
      2 C         141.2399  142.2997  163.0681 C.3     1  UNL1        0.0257
      3 C         141.2358  141.3336  164.2155 C.3     1  UNL1        0.0940
      4 N         140.8322  139.9062  163.9926 N.am    1  UNL1       -0.2759
      5 C         140.8280  138.9400  165.1400 C.2     1  UNL1        0.2535
      6 O         140.4244  137.5127  164.9171 O.2     1  UNL1       -0.2697
      7 C         140.4327  139.4450  162.6223 C.3     1  UNL1        0.0940
      8 C         140.4369  140.4110  161.4749 C.3     1  UNL1        0.0257
      9 C         141.2275  139.4013  166.5103 C.ar    1  UNL1        0.1096
     10 C         142.5603  139.0084  167.0751 C.ar    1  UNL1        0.1467
     11 F         143.4938  138.1541  166.2697 F       1  UNL1       -0.2039
     12 C         142.9597  139.4698  168.4454 C.ar    1  UNL1        0.0312
     13 C         142.0262  140.3241  169.2508 C.ar    1  UNL1        0.0204
     14 C         140.6933  140.7170  168.6860 C.ar    1  UNL1        0.0921
     15 C         140.2939  140.2557  167.3157 C.ar    1  UNL1        0.1611
     16 F         138.9611  140.6486  166.7509 F       1  UNL1       -0.2026
     17 N         139.7599  141.5713  169.4914 N.pl3   1  UNL1       -0.2165
     18 H         138.8902  141.2122  169.7811 H       1  UNL1        0.1734
     19 S         140.1514  142.9728  169.8556 S.O2    1  UNL1        0.0559
     20 C         140.5429  144.3742  170.2197 C.3     1  UNL1        0.1996
     21 O         140.2742  143.3165  168.4006 O.2     1  UNL1       -0.1544
     22 O         140.0287  142.6292  171.3105 O.2     1  UNL1       -0.1544
     23 C         140.5456  141.8777  160.2275 C.ar    1  UNL1       -0.0204
     24 C         139.2847  142.5216  159.7323 C.ar    1  UNL1       -0.0041
     25 C         138.9898  142.5607  158.2621 C.ar    1  UNL1        0.0020
     26 C         139.9560  141.9559  157.2871 C.ar    1  UNL1        0.0296
     27 C         141.2171  141.3120  157.7823 C.ar    1  UNL1        0.1398
     28 F         142.1832  140.7072  156.8073 F       1  UNL1       -0.2042
     29 C         141.5118  141.2729  159.2525 C.ar    1  UNL1        0.0254
     30 C         141.1417  143.2794  161.4100 C.3     1  UNL1        0.0215
     31 C         142.5473  143.7899  161.5277 C.3     1  UNL1        0.0723
     32 C         142.6315  143.7682  161.6584 C.3     1  UNL1        0.0893
     33 C         143.2575  142.5947  160.9646 C.3     1  UNL1        0.0386
     34 C         144.2970  141.7741  161.6689 C.3     1  UNL1        0.0594
     35 C         145.2477  141.2659  162.7119 C.3     1  UNL1        0.0174
     36 C         145.1251  142.1470  163.9196 C.3     1  UNL1        0.0174
     37 C         144.0985  143.1998  163.6230 C.3     1  UNL1        0.0594
     38 C         143.0450  144.1208  163.0564 C.3     1  UNL1        0.0386
     39 N         143.5867  142.9693  162.2320 N.3     1  UNL1       -0.2751
     40 C         140.3726  145.0249  163.0774 C.3     1  UNL1        0.0718
     41 C         140.4150  145.2609  161.5967 C.ar    1  UNL1        0.1207
     42 N         139.6426  145.9688  160.5233 N.ar    1  UNL1       -0.2309
     43 C         140.3422  145.7343  159.2173 C.ar    1  UNL1        0.0983
     44 C         140.0378  146.1871  157.8201 C.ar    1  UNL1        0.0206
     45 C         140.9383  145.7870  156.6892 C.ar    1  UNL1        0.0016
     46 C         142.1431  144.9341  156.9555 C.ar    1  UNL1        0.0016
     47 C         142.4475  144.4812  158.3527 C.ar    1  UNL1        0.0188
     48 C         141.5470  144.8813  159.4836 C.ar    1  UNL1        0.0785
     49 N         141.5920  144.5888  160.9541 N.ar    1  UNL1       -0.3167
@<TRIPOS>BOND
     1    40    41    1
     2    41    42   ar
     3    42    43   ar
     4    43    44   ar
     5    44    45   ar
     6    45    46   ar
     7    46    47   ar
     8    47    48   ar
     9    48    49   ar
    10    49    32    1
    11    32    33    1
    12    33    34    1
    13    34    35    1
    14    35    36    1
    15    36    37    1
    16    37    38    1
    17    37    39    1
    18    39    31    1
    19    31    30    1
    20    30     1    1
    21     1    23    1
    22    23    24   ar
    23    24    25   ar
    24    25    26   ar
    25    26    27   ar
    26    27    28    1
    27    27    29   ar
    28     1     2    1
    29     2     3    1
    30     3     4    1
    31     4     5   am
    32     5     6    2
    33     5     9    1
    34     9    10   ar
    35    10    11    1
    36    10    12   ar
    37    12    13   ar
    38    13    14   ar
    39    14    17    1
    40    17    19    1
    41    19    20    1
    42    19    21    2
    43    19    22    2
    44    14    15   ar
    45    15    16    1
    46     4     7    1
    47     7     8    1
    48    49    41   ar
    49    38    32    1
    50     8     1    1
    51    48    43   ar
    52    39    34    1
    53    29    23   ar
    54    15     9   ar
    55    17    18    1
@<TRIPOS>MOLECULE
*****
 49 55 0 0 0
SMALL
GASTEIGER

@<TRIPOS>ATOM
      1 C         140.2920  142.3214  161.6896 C.3     1  UNL1        0.0236
      2 C         141.1438  141.7048  160.6200 C.3     1  UNL1        0.0257
      3 C         140.5005  141.0348  159.4422 C.3     1  UNL1        0.0940
      4 N         139.0053  140.9814  159.3340 N.am    1  UNL1       -0.2759
      5 C         138.3620  140.3114  158.1562 C.2     1  UNL1        0.2535
      6 O         136.8668  140.2580  158.0481 O.2     1  UNL1       -0.2697
      7 C         138.1535  141.5980  160.4037 C.3     1  UNL1        0.0940
      8 C         138.7968  142.2680  161.5815 C.3     1  UNL1        0.0257
      9 C         139.2138  139.6948  157.0866 C.ar    1  UNL1        0.1096
     10 C         139.4467  140.4268  155.7982 C.ar    1  UNL1        0.1467
     11 F         138.8278  141.7755  155.5794 F       1  UNL1       -0.2039
     12 C         140.2986  139.8101  154.7286 C.ar    1  UNL1        0.0312
     13 C         140.9176  138.4614  154.9474 C.ar    1  UNL1        0.0204
     14 C         140.6847  137.7294  156.2358 C.ar    1  UNL1        0.0921
     15 C         139.8328  138.3461  157.3054 C.ar    1  UNL1        0.1611
     16 F         139.5999  137.6140  158.5937 F       1  UNL1       -0.2026
     17 N         141.3037  136.3807  156.4545 N.pl3   1  UNL1       -0.2165
     18 H         140.7923  135.6721  156.9080 H       1  UNL1        0.1734
     19 S         142.7018  136.1116  155.9824 S.O2    1  UNL1        0.0559
     20 C         144.0999  135.8425  155.5104 C.3     1  UNL1        0.1996
     21 O         142.1655  135.2179  154.9037 O.2     1  UNL1       -0.1544
     22 O         143.2381  137.0053  157.0612 O.2     1  UNL1       -0.1544
     23 C         139.9138  143.0437  162.9488 C.ar    1  UNL1       -0.0204
     24 C         139.2991  144.4099  162.8739 C.ar    1  UNL1       -0.0041
     25 C         138.9208  145.1322  164.1330 C.ar    1  UNL1        0.0020
     26 C         139.1574  144.4882  165.4669 C.ar    1  UNL1        0.0296
     27 C         139.7722  143.1220  165.5418 C.ar    1  UNL1        0.1398
     28 F         140.0087  142.4781  166.8757 F       1  UNL1       -0.2042
     29 C         140.1503  142.3998  164.2826 C.ar    1  UNL1        0.0254
     30 C         141.6557  142.6256  162.2350 C.3     1  UNL1        0.0215
     31 C         142.5270  143.6392  161.5541 C.3     1  UNL1        0.0723
     32 C         142.5478  143.6358  161.3985 C.3     1  UNL1        0.0893
     33 C         141.5008  144.7067  161.3144 C.3     1  UNL1        0.0386
     34 C         141.1021  145.2626  159.9795 C.3     1  UNL1        0.0594
     35 C         141.0253  145.5083  158.5018 C.3     1  UNL1        0.0174
     36 C         142.0040  144.5927  157.8282 C.3     1  UNL1        0.0174
     37 C         142.6857  143.7811  158.8895 C.3     1  UNL1        0.0594
     38 C         143.1960  143.1208  160.1477 C.3     1  UNL1        0.0386
     39 N         142.1283  144.1951  160.2192 N.3     1  UNL1       -0.2751
     40 C         142.6597  145.2902  163.8369 C.3     1  UNL1        0.0718
     41 C         143.0296  143.8480  164.0192 C.ar    1  UNL1        0.1207
     42 N         143.4666  142.9011  165.0973 N.ar    1  UNL1       -0.2309
     43 C         143.6536  141.5478  164.4780 C.ar    1  UNL1        0.0983
     44 C         144.0750  140.2292  165.0555 C.ar    1  UNL1        0.0206
     45 C         144.1750  139.0211  164.1721 C.ar    1  UNL1        0.0016
     46 C         143.8536  139.1316  162.7112 C.ar    1  UNL1        0.0016
     47 C         143.4322  140.4502  162.1336 C.ar    1  UNL1        0.0188
     48 C         143.3322  141.6583  163.0170 C.ar    1  UNL1        0.0785
     49 N         142.9465  143.0799  162.7335 N.ar    1  UNL1       -0.3167
@<TRIPOS>BOND
     1    40    41    1
     2    41    42   ar
     3    42    43   ar
     4    43    44   ar
     5    44    45   ar
     6    45    46   ar
     7    46    47   ar
     8    47    48   ar
     9    48    49   ar
    10    49    32    1
    11    32    33    1
    12    33    34    1
    13    34    35    1
    14    35    36    1
    15    36    37    1
    16    37    38    1
    17    37    39    1
    18    39    31    1
    19    31    30    1
    20    30     1    1
    21     1    23    1
    22    23    24   ar
    23    24    25   ar
    24    25    26   ar
    25    26    27   ar
    26    27    28    1
    27    27    29   ar
    28     1     2    1
    29     2     3    1
    30     3     4    1
    31     4     5   am
    32     5     6    2
    33     5     9    1
    34     9    10   ar
    35    10    11    1
    36    10    12   ar
    37    12    13   ar
    38    13    14   ar
    39    14    17    1
    40    17    19    1
    41    19    20    1
    42    19    21    2
    43    19    22    2
    44    14    15   ar
    45    15    16    1
    46     4     7    1
    47     7     8    1
    48    49    41   ar
    49    38    32    1
    50     8     1    1
    51    48    43   ar
    52    39    34    1
    53    29    23   ar
    54    15     9   ar
    55    17    18    1
@<TRIPOS>MOLECULE
*****
 49 55 0 0 0
SMALL
GASTEIGER

@<TRIPOS>ATOM
      1 C         140.7575  141.6094  164.5640 C.3     1  UNL1        0.0236
      2 C         141.7697  142.1035  163.5734 C.3     1  UNL1        0.0257
      3 C         141.3257  142.5843  162.2237 C.3     1  UNL1        0.0940
      4 N         139.8694  142.5710  161.8646 N.am    1  UNL1       -0.2759
      5 C         139.4254  143.0518  160.5149 C.2     1  UNL1        0.2535
      6 O         137.9691  143.0385  160.1557 O.2     1  UNL1       -0.2697
      7 C         138.8571  142.0769  162.8551 C.3     1  UNL1        0.0940
      8 C         139.3011  141.5961  164.2047 C.3     1  UNL1        0.0257
      9 C         140.4377  143.5459  159.5244 C.ar    1  UNL1        0.1096
     10 C         140.6364  145.0194  159.3266 C.ar    1  UNL1        0.1467
     11 F         139.8227  145.9990  160.1193 F       1  UNL1       -0.2039
     12 C         141.6488  145.5134  158.3361 C.ar    1  UNL1        0.0312
     13 C         142.4625  144.5339  157.5434 C.ar    1  UNL1        0.0204
     14 C         142.2638  143.0603  157.7412 C.ar    1  UNL1        0.0921
     15 C         141.2514  142.5663  158.7317 C.ar    1  UNL1        0.1611
     16 F         141.0528  141.0928  158.9295 F       1  UNL1       -0.2026
     17 N         143.0775  142.0808  156.9485 N.pl3   1  UNL1       -0.2165
     18 H         142.6285  141.3859  156.4149 H       1  UNL1        0.1734
     19 S         144.5752  142.1600  156.9688 S.O2    1  UNL1        0.0559
     20 C         146.0730  142.2392  156.9891 C.3     1  UNL1        0.1996
     21 O         144.5777  141.7438  158.4099 O.2     1  UNL1       -0.1544
     22 O         144.5728  142.5763  155.5277 O.2     1  UNL1       -0.1544
     23 C         140.1814  141.0527  165.8322 C.ar    1  UNL1       -0.0204
     24 C         139.5454  139.6943  165.8342 C.ar    1  UNL1       -0.0041
     25 C         138.9693  139.1376  167.1024 C.ar    1  UNL1        0.0020
     26 C         139.0293  139.9396  168.3687 C.ar    1  UNL1        0.0296
     27 C         139.6653  141.2981  168.3667 C.ar    1  UNL1        0.1398
     28 F         139.7253  142.0999  169.6329 F       1  UNL1       -0.2042
     29 C         140.2414  141.8546  167.0984 C.ar    1  UNL1        0.0254
     30 C         142.0136  141.4293  165.3636 C.3     1  UNL1        0.0215
     31 C         142.9958  140.3599  164.9868 C.3     1  UNL1        0.0723
     32 C         143.0383  140.3400  164.8371 C.3     1  UNL1        0.0893
     33 C         142.0471  139.2151  164.7883 C.3     1  UNL1        0.0386
     34 C         141.8583  138.4363  163.5202 C.3     1  UNL1        0.0594
     35 C         141.9987  137.9581  162.1055 C.3     1  UNL1        0.0174
     36 C         143.0342  138.8073  161.4297 C.3     1  UNL1        0.0174
     37 C         143.5337  139.8104  162.4268 C.3     1  UNL1        0.0594
     38 C         143.8405  140.6860  163.6179 C.3     1  UNL1        0.0386
     39 N         142.8070  139.5812  163.7189 N.3     1  UNL1       -0.2751
     40 C         143.8947  143.1617  164.8536 C.3     1  UNL1        0.0718
     41 C         143.6586  142.5520  166.2036 C.ar    1  UNL1        0.1207
     42 N         143.7157  142.9200  167.6566 N.ar    1  UNL1       -0.2309
     43 C         143.3194  141.7143  168.4561 C.ar    1  UNL1        0.0983
     44 C         143.1945  141.4863  169.9334 C.ar    1  UNL1        0.0206
     45 C         142.7676  140.1450  170.4517 C.ar    1  UNL1        0.0016
     46 C         142.4656  139.0318  169.4928 C.ar    1  UNL1        0.0016
     47 C         142.5905  139.2598  168.0155 C.ar    1  UNL1        0.0188
     48 C         143.0174  140.6011  167.4972 C.ar    1  UNL1        0.0785
     49 N         143.2271  141.1188  166.1051 N.ar    1  UNL1       -0.3167
@<TRIPOS>BOND
     1    40    41    1
     2    41    42   ar
     3    42    43   ar
     4    43    44   ar
     5    44    45   ar
     6    45    46   ar
     7    46    47   ar
     8    47    48   ar
     9    48    49   ar
    10    49    32    1
    11    32    33    1
    12    33    34    1
    13    34    35    1
    14    35    36    1
    15    36    37    1
    16    37    38    1
    17    37    39    1
    18    39    31    1
    19    31    30    1
    20    30     1    1
    21     1    23    1
    22    23    24   ar
    23    24    25   ar
    24    25    26   ar
    25    26    27   ar
    26    27    28    1
    27    27    29   ar
    28     1     2    1
    29     2     3    1
    30     3     4    1
    31     4     5   am
    32     5     6    2
    33     5     9    1
    34     9    10   ar
    35    10    11    1
    36    10    12   ar
    37    12    13   ar
    38    13    14   ar
    39    14    17    1
    40    17    19    1
    41    19    20    1
    42    19    21    2
    43    19    22    2
    44    14    15   ar
    45    15    16    1
    46     4     7    1
    47     7     8    1
    48    49    41   ar
    49    38    32    1
    50     8     1    1
    51    48    43   ar
    52    39    34    1
    53    29    23   ar
    54    15     9   ar
    55    17    18    1
@<TRIPOS>MOLECULE
*****
 49 55 0 0 0
SMALL
GASTEIGER

@<TRIPOS>ATOM
      1 C         140.5993  141.5962  161.2525 C.3     1  UNL1        0.0236
      2 C         140.7569  142.0707  162.6668 C.3     1  UNL1        0.0257
      3 C         140.5231  141.1235  163.8061 C.3     1  UNL1        0.0940
      4 N         140.1317  139.7018  163.5313 N.am    1  UNL1       -0.2759
      5 C         139.8979  138.7545  164.6707 C.2     1  UNL1        0.2535
      6 O         139.5064  137.3329  164.3958 O.2     1  UNL1       -0.2697
      7 C         139.9740  139.2273  162.1171 C.3     1  UNL1        0.0940
      8 C         140.2078  140.1744  160.9777 C.3     1  UNL1        0.0257
      9 C         140.0555  139.2291  166.0848 C.ar    1  UNL1        0.1096
     10 C         138.8475  139.4023  166.9570 C.ar    1  UNL1        0.1467
     11 F         137.4817  139.1009  166.4149 F       1  UNL1       -0.2039
     12 C         139.0053  139.8769  168.3712 C.ar    1  UNL1        0.0312
     13 C         140.3711  140.1782  168.9132 C.ar    1  UNL1        0.0204
     14 C         141.5791  140.0051  168.0410 C.ar    1  UNL1        0.0921
     15 C         141.4213  139.5305  166.6269 C.ar    1  UNL1        0.1611
     16 F         142.6294  139.3573  165.7547 F       1  UNL1       -0.2026
     17 N         142.9448  140.3064  168.5831 N.pl3   1  UNL1       -0.2165
     18 H         143.6947  139.6971  168.3946 H       1  UNL1        0.1734
     19 S         143.1681  141.5363  169.4124 S.O2    1  UNL1        0.0559
     20 C         143.3913  142.7661  170.2416 C.3     1  UNL1        0.1996
     21 O         143.1194  142.3805  168.1734 O.2     1  UNL1       -0.1544
     22 O         143.2167  140.6921  170.6513 O.2     1  UNL1       -0.1544
     23 C         140.5746  141.6180  159.7528 C.ar    1  UNL1       -0.0204
     24 C         141.6392  140.9033  158.9747 C.ar    1  UNL1       -0.0041
     25 C         141.6145  140.9251  157.4750 C.ar    1  UNL1        0.0020
     26 C         140.5251  141.6618  156.7536 C.ar    1  UNL1        0.0296
     27 C         139.4604  142.3766  157.5318 C.ar    1  UNL1        0.1398
     28 F         138.3711  143.1132  156.8103 F       1  UNL1       -0.2042
     29 C         139.4852  142.3547  159.0314 C.ar    1  UNL1        0.0254
     30 C         140.9821  143.0254  161.0066 C.3     1  UNL1        0.0215
     31 C         142.3641  143.5006  161.3448 C.3     1  UNL1        0.0723
     32 C         142.4309  143.4649  161.4823 C.3     1  UNL1        0.0893
     33 C         143.1414  142.3589  160.7596 C.3     1  UNL1        0.0386
     34 C         144.0824  141.4593  161.5047 C.3     1  UNL1        0.0594
     35 C         144.8918  140.8379  162.6041 C.3     1  UNL1        0.0174
     36 C         144.6148  141.5955  163.8687 C.3     1  UNL1        0.0174
     37 C         143.6342  142.6852  163.5510 C.3     1  UNL1        0.0594
     38 C         142.6616  143.6711  162.9500 C.3     1  UNL1        0.0386
     39 N         143.3052  142.6010  162.0898 N.3     1  UNL1       -0.2751
     40 C         140.1379  144.7878  162.7813 C.3     1  UNL1        0.0718
     41 C         140.3032  145.0745  161.3183 C.ar    1  UNL1        0.1207
     42 N         139.6502  145.8608  160.2204 N.ar    1  UNL1       -0.2309
     43 C         140.4333  145.6367  158.9608 C.ar    1  UNL1        0.0983
     44 C         140.2580  146.1553  157.5643 C.ar    1  UNL1        0.0206
     45 C         141.2196  145.7491  156.4872 C.ar    1  UNL1        0.0016
     46 C         142.3566  144.8243  156.8066 C.ar    1  UNL1        0.0016
     47 C         142.5319  144.3057  158.2031 C.ar    1  UNL1        0.0188
     48 C         141.5703  144.7119  159.2802 C.ar    1  UNL1        0.0785
     49 N         141.4899  144.3645  160.7372 N.ar    1  UNL1       -0.3167
@<TRIPOS>BOND
     1    40    41    1
     2    41    42   ar
     3    42    43   ar
     4    43    44   ar
     5    44    45   ar
     6    45    46   ar
     7    46    47   ar
     8    47    48   ar
     9    48    49   ar
    10    49    32    1
    11    32    33    1
    12    33    34    1
    13    34    35    1
    14    35    36    1
    15    36    37    1
    16    37    38    1
    17    37    39    1
    18    39    31    1
    19    31    30    1
    20    30     1    1
    21     1    23    1
    22    23    24   ar
    23    24    25   ar
    24    25    26   ar
    25    26    27   ar
    26    27    28    1
    27    27    29   ar
    28     1     2    1
    29     2     3    1
    30     3     4    1
    31     4     5   am
    32     5     6    2
    33     5     9    1
    34     9    10   ar
    35    10    11    1
    36    10    12   ar
    37    12    13   ar
    38    13    14   ar
    39    14    17    1
    40    17    19    1
    41    19    20    1
    42    19    21    2
    43    19    22    2
    44    14    15   ar
    45    15    16    1
    46     4     7    1
    47     7     8    1
    48    49    41   ar
    49    38    32    1
    50     8     1    1
    51    48    43   ar
    52    39    34    1
    53    29    23   ar
    54    15     9   ar
    55    17    18    1
@<TRIPOS>MOLECULE
*****
 49 55 0 0 0
SMALL
GASTEIGER

@<TRIPOS>ATOM
      1 C         142.0529  141.3888  161.9221 C.3     1  UNL1        0.0236
      2 C         141.0306  140.8373  160.9730 C.3     1  UNL1        0.0257
      3 C         141.4540  140.3290  159.6268 C.3     1  UNL1        0.0940
      4 N         142.8998  140.3723  159.2295 N.am    1  UNL1       -0.2759
      5 C         143.3232  139.8641  157.8832 C.2     1  UNL1        0.2535
      6 O         144.7690  139.9073  157.4859 O.2     1  UNL1       -0.2697
      7 C         143.9221  140.9238  160.1785 C.3     1  UNL1        0.0940
      8 C         143.4988  141.4320  161.5247 C.3     1  UNL1        0.0257
      9 C         142.3008  139.3126  156.9343 C.ar    1  UNL1        0.1096
     10 C         141.5323  140.2384  156.0385 C.ar    1  UNL1        0.1467
     11 F         141.7864  141.7158  156.0917 F       1  UNL1       -0.2039
     12 C         140.5099  139.6868  155.0896 C.ar    1  UNL1        0.0312
     13 C         140.2559  138.2094  155.0365 C.ar    1  UNL1        0.0204
     14 C         141.0243  137.2836  155.9322 C.ar    1  UNL1        0.0921
     15 C         142.0468  137.8352  156.8811 C.ar    1  UNL1        0.1611
     16 F         142.8152  136.9094  157.7769 F       1  UNL1       -0.2026
     17 N         140.7703  135.8063  155.8791 N.pl3   1  UNL1       -0.2165
     18 H         140.0223  135.4168  156.3871 H       1  UNL1        0.1734
     19 S         141.6559  134.9222  155.0519 S.O2    1  UNL1        0.0559
     20 C         142.5415  134.0382  154.2247 C.3     1  UNL1        0.1996
     21 O         142.2829  134.3804  156.3022 O.2     1  UNL1       -0.1544
     22 O         141.0290  135.4640  153.8015 O.2     1  UNL1       -0.1544
     23 C         142.6446  141.9989  163.1581 C.ar    1  UNL1       -0.0204
     24 C         142.7858  141.1782  164.4057 C.ar    1  UNL1       -0.0041
     25 C         143.3775  141.7883  165.6418 C.ar    1  UNL1        0.0020
     26 C         143.8280  143.2190  165.6301 C.ar    1  UNL1        0.0296
     27 C         143.6868  144.0397  164.3824 C.ar    1  UNL1        0.1398
     28 F         144.1372  145.4703  164.3708 F       1  UNL1       -0.2042
     29 C         143.0951  143.4295  163.1464 C.ar    1  UNL1        0.0254
     30 C         140.8127  141.5574  162.7486 C.3     1  UNL1        0.0215
     31 C         139.7773  142.5670  162.3501 C.3     1  UNL1        0.0723
     32 C         139.7285  142.5732  162.2011 C.3     1  UNL1        0.0893
     33 C         140.6494  143.7451  162.0314 C.3     1  UNL1        0.0386
     34 C         140.7473  144.4359  160.7036 C.3     1  UNL1        0.0594
     35 C         140.5294  144.7980  159.2643 C.3     1  UNL1        0.0174
     36 C         139.5226  143.8437  158.6936 C.3     1  UNL1        0.0174
     37 C         139.1184  142.8918  159.7801 C.3     1  UNL1        0.0594
     38 C         138.9057  142.0922  161.0429 C.3     1  UNL1        0.0386
     39 N         139.8753  143.2578  161.0224 N.3     1  UNL1       -0.2751
     40 C         139.9867  144.0130  164.7616 C.3     1  UNL1        0.0718
     41 C         139.7496  142.5361  164.8738 C.ar    1  UNL1        0.1207
     42 N         139.5890  141.4743  165.9210 N.ar    1  UNL1       -0.2309
     43 C         139.3706  140.1644  165.2235 C.ar    1  UNL1        0.0983
     44 C         139.1518  138.7746  165.7435 C.ar    1  UNL1        0.0206
     45 C         138.9585  137.6370  164.7851 C.ar    1  UNL1        0.0016
     46 C         138.9842  137.8893  163.3067 C.ar    1  UNL1        0.0016
     47 C         139.2031  139.2791  162.7867 C.ar    1  UNL1        0.0188
     48 C         139.3963  140.4167  163.7451 C.ar    1  UNL1        0.0785
     49 N         139.6305  141.8824  163.5290 N.ar    1  UNL1       -0.3167
@<TRIPOS>BOND
     1    40    41    1
     2    41    42   ar
     3    42    43   ar
     4    43    44   ar
     5    44    45   ar
     6    45    46   ar
     7    46    47   ar
     8    47    48   ar
     9    48    49   ar
    10    49    32    1
    11    32    33    1
    12    33    34    1
    13    34    35    1
    14    35    36    1
    15    36    37    1
    16    37    38    1
    17    37    39    1
    18    39    31    1
    19    31    30    1
    20    30     1    1
    21     1    23    1
    22    23    24   ar
    23    24    25   ar
    24    25    26   ar
    25    26    27   ar
    26    27    28    1
    27    27    29   ar
    28     1     2    1
    29     2     3    1
    30     3     4    1
    31     4     5   am
    32     5     6    2
    33     5     9    1
    34     9    10   ar
    35    10    11    1
    36    10    12   ar
    37    12    13   ar
    38    13    14   ar
    39    14    17    1
    40    17    19    1
    41    19    20    1
    42    19    21    2
    43    19    22    2
    44    14    15   ar
    45    15    16    1
    46     4     7    1
    47     7     8    1
    48    49    41   ar
    49    38    32    1
    50     8     1    1
    51    48    43   ar
    52    39    34    1
    53    29    23   ar
    54    15     9   ar
    55    17    18    1
@<TRIPOS>MOLECULE
*****
 49 55 0 0 0
SMALL
GASTEIGER

@<TRIPOS>ATOM
      1 C         140.8089  140.9636  161.0918 C.3     1  UNL1        0.0236
      2 C         140.1034  139.9233  160.2733 C.3     1  UNL1        0.0257
      3 C         140.7975  139.2918  159.1031 C.3     1  UNL1        0.0940
      4 N         142.1971  139.7006  158.7513 N.am    1  UNL1       -0.2759
      5 C         142.8912  139.0691  157.5811 C.2     1  UNL1        0.2535
      6 O         144.2909  139.4779  157.2293 O.2     1  UNL1       -0.2697
      7 C         142.9027  140.7409  159.5698 C.3     1  UNL1        0.0940
      8 C         142.2087  141.3724  160.7400 C.3     1  UNL1        0.0257
      9 C         142.1856  138.0287  156.7627 C.ar    1  UNL1        0.1096
     10 C         142.4580  136.5734  157.0030 C.ar    1  UNL1        0.1467
     11 F         143.4362  136.1583  158.0618 F       1  UNL1       -0.2039
     12 C         141.7523  135.5332  156.1846 C.ar    1  UNL1        0.0312
     13 C         140.7742  135.9482  155.1258 C.ar    1  UNL1        0.0204
     14 C         140.5017  137.4036  154.8855 C.ar    1  UNL1        0.0921
     15 C         141.2074  138.4438  155.7039 C.ar    1  UNL1        0.1611
     16 F         140.9350  139.8991  155.4636 F       1  UNL1       -0.2026
     17 N         139.5236  137.8186  153.8268 N.pl3   1  UNL1       -0.2165
     18 H         139.7311  137.6635  152.8770 H       1  UNL1        0.1734
     19 S         138.2294  138.4699  154.2151 S.O2    1  UNL1        0.0559
     20 C         136.9352  139.1213  154.6035 C.3     1  UNL1        0.1996
     21 O         137.8854  137.2811  155.0627 O.2     1  UNL1       -0.1544
     22 O         138.5734  139.6588  153.3676 O.2     1  UNL1       -0.1544
     23 C         141.0586  141.9852  162.1615 C.ar    1  UNL1       -0.0204
     24 C         141.3731  141.5449  163.5604 C.ar    1  UNL1       -0.0041
     25 C         141.6228  142.5665  164.6300 C.ar    1  UNL1        0.0020
     26 C         141.5579  144.0284  164.3006 C.ar    1  UNL1        0.0296
     27 C         141.2433  144.4688  162.9016 C.ar    1  UNL1        0.1398
     28 F         141.1784  145.9307  162.5722 F       1  UNL1       -0.2042
     29 C         140.9937  143.4471  161.8320 C.ar    1  UNL1        0.0254
     30 C         139.4960  140.9096  161.8150 C.3     1  UNL1        0.0215
     31 C         138.2482  141.3995  161.1419 C.3     1  UNL1        0.0723
     32 C         138.2104  141.3420  161.0008 C.3     1  UNL1        0.0893
     33 C         138.7554  142.6152  160.4245 C.3     1  UNL1        0.0386
     34 C         138.7400  142.8337  158.9405 C.3     1  UNL1        0.0594
     35 C         138.5282  142.6262  157.4701 C.3     1  UNL1        0.0174
     36 C         137.8900  141.2823  157.2789 C.3     1  UNL1        0.0174
     37 C         137.7074  140.6591  158.6310 C.3     1  UNL1        0.0594
     38 C         137.6501  140.2875  160.0932 C.3     1  UNL1        0.0386
     39 N         138.2328  141.6180  159.6581 N.3     1  UNL1       -0.2751
     40 C         137.7249  143.5185  162.9302 C.3     1  UNL1        0.0718
     41 C         137.9899  142.1705  163.5326 C.ar    1  UNL1        0.1207
     42 N         138.0981  141.5137  164.8768 N.ar    1  UNL1       -0.2309
     43 C         138.4010  140.0607  164.6597 C.ar    1  UNL1        0.0983
     44 C         138.6151  138.9261  165.6171 C.ar    1  UNL1        0.0206
     45 C         138.9081  137.5503  165.0962 C.ar    1  UNL1        0.0016
     46 C         138.9870  137.3092  163.6179 C.ar    1  UNL1        0.0016
     47 C         138.7729  138.4438  162.6604 C.ar    1  UNL1        0.0188
     48 C         138.4799  139.8195  163.1813 C.ar    1  UNL1        0.0785
     49 N         138.2258  141.1235  162.4847 N.ar    1  UNL1       -0.3167
@<TRIPOS>BOND
     1    40    41    1
     2    41    42   ar
     3    42    43   ar
     4    43    44   ar
     5    44    45   ar
     6    45    46   ar
     7    46    47   ar
     8    47    48   ar
     9    48    49   ar
    10    49    32    1
    11    32    33    1
    12    33    34    1
    13    34    35    1
    14    35    36    1
    15    36    37    1
    16    37    38    1
    17    37    39    1
    18    39    31    1
    19    31    30    1
    20    30     1    1
    21     1    23    1
    22    23    24   ar
    23    24    25   ar
    24    25    26   ar
    25    26    27   ar
    26    27    28    1
    27    27    29   ar
    28     1     2    1
    29     2     3    1
    30     3     4    1
    31     4     5   am
    32     5     6    2
    33     5     9    1
    34     9    10   ar
    35    10    11    1
    36    10    12   ar
    37    12    13   ar
    38    13    14   ar
    39    14    17    1
    40    17    19    1
    41    19    20    1
    42    19    21    2
    43    19    22    2
    44    14    15   ar
    45    15    16    1
    46     4     7    1
    47     7     8    1
    48    49    41   ar
    49    38    32    1
    50     8     1    1
    51    48    43   ar
    52    39    34    1
    53    29    23   ar
    54    15     9   ar
    55    17    18    1
@<TRIPOS>MOLECULE
*****
 49 55 0 0 0
SMALL
GASTEIGER

@<TRIPOS>ATOM
      1 C         141.8794  141.2404  161.9433 C.3     1  UNL1        0.0236
      2 C         140.8148  140.6456  161.0700 C.3     1  UNL1        0.0257
      3 C         141.1758  140.0740  159.7310 C.3     1  UNL1        0.0940
      4 N         142.6015  140.0970  159.2653 N.am    1  UNL1       -0.2759
      5 C         142.9625  139.5253  157.9263 C.2     1  UNL1        0.2535
      6 O         144.3882  139.5484  157.4607 O.2     1  UNL1       -0.2697
      7 C         143.6662  140.6918  160.1387 C.3     1  UNL1        0.0940
      8 C         143.3052  141.2634  161.4776 C.3     1  UNL1        0.0257
      9 C         141.8977  138.9306  157.0531 C.ar    1  UNL1        0.1096
     10 C         141.8001  137.4419  156.8977 C.ar    1  UNL1        0.1467
     11 F         142.7672  136.5478  157.6155 F       1  UNL1       -0.2039
     12 C         140.7353  136.8472  156.0244 C.ar    1  UNL1        0.0312
     13 C         139.7682  137.7413  155.3065 C.ar    1  UNL1        0.0204
     14 C         139.8658  139.2301  155.4619 C.ar    1  UNL1        0.0921
     15 C         140.9306  139.8247  156.3352 C.ar    1  UNL1        0.1611
     16 F         141.0283  141.3134  156.4906 F       1  UNL1       -0.2026
     17 N         138.8988  140.1240  154.7441 N.pl3   1  UNL1       -0.2165
     18 H         138.9089  140.1713  153.7607 H       1  UNL1        0.1734
     19 S         137.9162  140.9461  155.5243 S.O2    1  UNL1        0.0559
     20 C         136.9336  141.7681  156.3046 C.3     1  UNL1        0.1996
     21 O         138.5230  142.1998  154.9676 O.2     1  UNL1       -0.1544
     22 O         137.3093  139.6924  156.0811 O.2     1  UNL1       -0.1544
     23 C         142.5272  141.9076  163.1204 C.ar    1  UNL1       -0.0204
     24 C         142.7254  141.1473  164.3981 C.ar    1  UNL1       -0.0041
     25 C         143.3731  141.8146  165.5751 C.ar    1  UNL1        0.0020
     26 C         143.8226  143.2421  165.4742 C.ar    1  UNL1        0.0296
     27 C         143.6244  144.0024  164.1964 C.ar    1  UNL1        0.1398
     28 F         144.0740  145.4298  164.0957 F       1  UNL1       -0.2042
     29 C         142.9767  143.3350  163.0195 C.ar    1  UNL1        0.0254
     30 C         140.6787  141.4490  162.8177 C.3     1  UNL1        0.0215
     31 C         139.6171  142.4284  162.4128 C.3     1  UNL1        0.0723
     32 C         139.5609  142.4273  162.2662 C.3     1  UNL1        0.0893
     33 C         140.4766  143.5834  161.9917 C.3     1  UNL1        0.0386
     34 C         140.5110  144.2053  160.6271 C.3     1  UNL1        0.0594
     35 C         140.2231  144.4953  159.1839 C.3     1  UNL1        0.0174
     36 C         139.1856  143.5196  158.7131 C.3     1  UNL1        0.0174
     37 C         138.8323  142.6265  159.8653 C.3     1  UNL1        0.0594
     38 C         138.6797  141.8934  161.1762 C.3     1  UNL1        0.0386
     39 N         139.6515  143.0503  161.0483 N.3     1  UNL1       -0.2751
     40 C         139.9303  143.9969  164.7351 C.3     1  UNL1        0.0718
     41 C         139.7045  142.5274  164.9335 C.ar    1  UNL1        0.1207
     42 N         139.5962  141.5204  166.0400 N.ar    1  UNL1       -0.2309
     43 C         139.3513  140.1762  165.4212 C.ar    1  UNL1        0.0983
     44 C         139.1620  138.8145  166.0211 C.ar    1  UNL1        0.0206
     45 C         138.9296  137.6290  165.1321 C.ar    1  UNL1        0.0016
     46 C         138.8866  137.8051  163.6431 C.ar    1  UNL1        0.0016
     47 C         139.0760  139.1667  163.0431 C.ar    1  UNL1        0.0188
     48 C         139.3083  140.3523  163.9322 C.ar    1  UNL1        0.0785
     49 N         139.5266  141.8054  163.6308 N.ar    1  UNL1       -0.3167
@<TRIPOS>BOND
     1    40    41    1
     2    41    42   ar
     3    42    43   ar
     4    43    44   ar
     5    44    45   ar
     6    45    46   ar
     7    46    47   ar
     8    47    48   ar
     9    48    49   ar
    10    49    32    1
    11    32    33    1
    12    33    34    1
    13    34    35    1
    14    35    36    1
    15    36    37    1
    16    37    38    1
    17    37    39    1
    18    39    31    1
    19    31    30    1
    20    30     1    1
    21     1    23    1
    22    23    24   ar
    23    24    25   ar
    24    25    26   ar
    25    26    27   ar
    26    27    28    1
    27    27    29   ar
    28     1     2    1
    29     2     3    1
    30     3     4    1
    31     4     5   am
    32     5     6    2
    33     5     9    1
    34     9    10   ar
    35    10    11    1
    36    10    12   ar
    37    12    13   ar
    38    13    14   ar
    39    14    17    1
    40    17    19    1
    41    19    20    1
    42    19    21    2
    43    19    22    2
    44    14    15   ar
    45    15    16    1
    46     4     7    1
    47     7     8    1
    48    49    41   ar
    49    38    32    1
    50     8     1    1
    51    48    43   ar
    52    39    34    1
    53    29    23   ar
    54    15     9   ar
    55    17    18    1
