@<TRIPOS>MOLECULE
*****
 32 36 0 0 0
SMALL
GASTEIGER

@<TRIPOS>ATOM
      1 C         140.0591  140.4708  167.0599 C.2     1  UNL1        0.0596
      2 C         139.0888  139.4320  166.5812 C.2     1  UNL1        0.0597
      3 C         138.2369  139.0216  167.7456 C.2     1  UNL1        0.2519
      4 O         137.1348  138.0046  167.7167 O.2     1  UNL1       -0.2697
      5 N         138.6808  139.8069  168.9441 N.am    1  UNL1       -0.2483
      6 C         139.8070  140.7025  168.5203 C.2     1  UNL1        0.2519
      7 O         140.5504  141.6615  169.4022 O.2     1  UNL1       -0.2697
      8 H         138.2999  139.7453  169.8498 H       1  UNL1        0.1581
      9 N         143.1790  141.6540  165.0771 N.ar    1  UNL1       -0.3260
     10 C         142.4865  140.6549  165.9559 C.ar    1  UNL1        0.0760
     11 C         141.0990  141.1574  166.2250 C.ar    1  UNL1        0.0231
     12 C         140.9340  142.4671  165.5125 C.ar    1  UNL1        0.0174
     13 C         139.7793  143.4197  165.4181 C.ar    1  UNL1        0.0015
     14 C         139.9100  144.6794  164.6143 C.ar    1  UNL1        0.0001
     15 C         141.1955  144.9863  163.9049 C.ar    1  UNL1        0.0015
     16 C         142.3503  144.0336  163.9993 C.ar    1  UNL1        0.0172
     17 C         142.2195  142.7740  164.8031 C.ar    1  UNL1        0.0599
     18 C         144.5842  141.5513  164.5627 C.3     1  UNL1        0.1075
     19 C         144.9807  140.3981  163.6890 C.3     1  UNL1        0.0418
     20 C         144.2697  140.1627  162.3893 C.3     1  UNL1        0.0742
     21 C         142.6493  138.1775  162.8167 C.3     1  UNL1        0.0897
     22 N         142.8811  139.5955  162.3861 N.3     1  UNL1       -0.2703
     23 C         141.7244  140.4463  161.9524 C.3     1  UNL1        0.0897
     24 C         138.9881  138.8973  165.1834 C.2     1  UNL1        0.0248
     25 C         139.3724  137.5177  164.7372 C.2     1  UNL1        0.0986
     26 N         139.1072  137.4161  163.2643 N.2     1  UNL1       -0.2478
     27 C         138.5589  138.7329  162.8002 C.2     1  UNL1        0.0634
     28 C         138.1171  139.2167  161.4508 C.3     1  UNL1        0.0717
     29 C         137.6017  140.6159  161.2875 C.2     1  UNL1       -0.0198
     30 C         137.5281  141.5313  162.4734 C.2     1  UNL1       -0.0041
     31 C         137.9699  141.0476  163.8228 C.2     1  UNL1        0.0009
     32 C         138.4852  139.6484  163.9862 C.2     1  UNL1        0.0155
@<TRIPOS>BOND
     1    21    22    1
     2    22    23    1
     3    22    20    1
     4    20    19    1
     5    19    18    1
     6    18     9    1
     7     9    10   ar
     8    10    11   ar
     9    11     1    1
    10     1     2    2
    11     2    24    1
    12    24    25    2
    13    25    26    1
    14    26    27    2
    15    27    28    1
    16    28    29    1
    17    29    30    2
    18    30    31    1
    19    31    32    2
    20     2     3    1
    21     3     4    2
    22     3     5   am
    23     5     6   am
    24     6     7    2
    25    11    12   ar
    26    12    13   ar
    27    13    14   ar
    28    14    15   ar
    29    15    16   ar
    30    16    17   ar
    31    17     9   ar
    32     6     1    1
    33    17    12   ar
    34    32    24    1
    35    32    27    1
    36     5     8    1
@<TRIPOS>MOLECULE
*****
 32 36 0 0 0
SMALL
GASTEIGER

@<TRIPOS>ATOM
      1 C         142.6337  142.3857  162.4561 C.2     1  UNL1        0.0596
      2 C         143.6649  141.6533  163.2624 C.2     1  UNL1        0.0597
      3 C         145.0188  142.1269  162.8236 C.2     1  UNL1        0.2519
      4 O         146.3358  141.6578  163.3668 O.2     1  UNL1       -0.2697
      5 N         144.8243  143.1521  161.7460 N.am    1  UNL1       -0.2483
      6 C         143.3502  143.3120  161.5189 C.2     1  UNL1        0.2519
      7 O         142.7060  144.2361  160.5284 O.2     1  UNL1       -0.2697
      8 H         145.5387  143.6352  161.2711 H       1  UNL1        0.1581
      9 N         138.8842  141.4056  162.2422 N.ar    1  UNL1       -0.3260
     10 C         140.3136  141.2154  161.8293 C.ar    1  UNL1        0.0760
     11 C         141.1469  142.2207  162.5675 C.ar    1  UNL1        0.0231
     12 C         140.2325  143.0322  163.4366 C.ar    1  UNL1        0.0174
     13 C         140.4926  144.1648  164.3850 C.ar    1  UNL1        0.0015
     14 C         139.3542  144.7935  165.1325 C.ar    1  UNL1        0.0001
     15 C         137.9557  144.2897  164.9314 C.ar    1  UNL1        0.0015
     16 C         137.6956  143.1572  163.9829 C.ar    1  UNL1        0.0172
     17 C         138.8340  142.5284  163.2355 C.ar    1  UNL1        0.0599
     18 C         137.7108  140.6122  161.7484 C.3     1  UNL1        0.1075
     19 C         137.9294  139.2880  161.0784 C.3     1  UNL1        0.0418
     20 C         138.0422  138.0399  161.9027 C.3     1  UNL1        0.0742
     21 C         138.8164  138.1318  164.3810 C.3     1  UNL1        0.0897
     22 N         139.1282  137.9152  162.9298 N.3     1  UNL1       -0.2703
     23 C         140.5260  137.5739  162.5059 C.3     1  UNL1        0.0897
     24 C         143.3904  140.6273  164.3217 C.2     1  UNL1        0.0248
     25 C         143.3123  139.1439  164.1132 C.2     1  UNL1        0.0986
     26 N         143.0195  138.5044  165.4381 N.2     1  UNL1       -0.2478
     27 C         142.9165  139.5925  166.4654 C.2     1  UNL1        0.0634
     28 C         142.6436  139.5582  167.9399 C.3     1  UNL1        0.0717
     29 C         142.5999  140.8360  168.7246 C.2     1  UNL1       -0.0198
     30 C         142.8292  142.1479  168.0346 C.2     1  UNL1       -0.0041
     31 C         143.1021  142.1823  166.5600 C.2     1  UNL1        0.0009
     32 C         143.1457  140.9046  165.7754 C.2     1  UNL1        0.0155
@<TRIPOS>BOND
     1    21    22    1
     2    22    23    1
     3    22    20    1
     4    20    19    1
     5    19    18    1
     6    18     9    1
     7     9    10   ar
     8    10    11   ar
     9    11     1    1
    10     1     2    2
    11     2    24    1
    12    24    25    2
    13    25    26    1
    14    26    27    2
    15    27    28    1
    16    28    29    1
    17    29    30    2
    18    30    31    1
    19    31    32    2
    20     2     3    1
    21     3     4    2
    22     3     5   am
    23     5     6   am
    24     6     7    2
    25    11    12   ar
    26    12    13   ar
    27    13    14   ar
    28    14    15   ar
    29    15    16   ar
    30    16    17   ar
    31    17     9   ar
    32     6     1    1
    33    17    12   ar
    34    32    24    1
    35    32    27    1
    36     5     8    1
@<TRIPOS>MOLECULE
*****
 32 36 0 0 0
SMALL
GASTEIGER

@<TRIPOS>ATOM
      1 C         140.8106  142.1391  167.8105 C.2     1  UNL1        0.0596
      2 C         141.1493  140.6975  168.0490 C.2     1  UNL1        0.0597
      3 C         140.9872  140.4194  169.5141 C.2     1  UNL1        0.2519
      4 O         141.2226  139.1028  170.1930 O.2     1  UNL1       -0.2697
      5 N         140.5483  141.6894  170.1810 N.am    1  UNL1       -0.2483
      6 C         140.4392  142.7522  169.1281 C.2     1  UNL1        0.2519
      7 O         140.0304  144.1777  169.3535 O.2     1  UNL1       -0.2697
      8 H         140.3642  141.8050  171.1412 H       1  UNL1        0.1581
      9 N         140.1443  144.0571  164.5025 N.ar    1  UNL1       -0.3260
     10 C         139.6623  143.4660  165.7942 C.ar    1  UNL1        0.0760
     11 C         140.8385  142.8440  166.4867 C.ar    1  UNL1        0.0231
     12 C         142.0474  143.0506  165.6231 C.ar    1  UNL1        0.0174
     13 C         143.4834  142.6529  165.7950 C.ar    1  UNL1        0.0015
     14 C         144.4905  143.0049  164.7405 C.ar    1  UNL1        0.0001
     15 C         144.0615  143.7547  163.5142 C.ar    1  UNL1        0.0015
     16 C         142.6254  144.1524  163.3424 C.ar    1  UNL1        0.0172
     17 C         141.6184  143.8003  164.3968 C.ar    1  UNL1        0.0599
     18 C         139.3004  144.7783  163.4937 C.3     1  UNL1        0.1075
     19 C         137.9644  144.2224  163.0987 C.3     1  UNL1        0.0418
     20 C         137.8419  142.7849  162.6878 C.3     1  UNL1        0.0742
     21 C         138.6174  142.5382  160.2206 C.3     1  UNL1        0.0897
     22 N         138.7876  142.2114  161.6746 N.3     1  UNL1       -0.2703
     23 C         139.9035  141.3111  162.1154 C.3     1  UNL1        0.0897
     24 C         141.5752  139.7076  167.0057 C.2     1  UNL1        0.0248
     25 C         142.9425  139.1067  166.8664 C.2     1  UNL1        0.0986
     26 N         142.9211  138.1725  165.6930 N.2     1  UNL1       -0.2478
     27 C         141.5404  138.1960  165.1071 C.2     1  UNL1        0.0634
     28 C         140.9332  137.4761  163.9396 C.3     1  UNL1        0.0717
     29 C         139.4941  137.7049  163.5834 C.2     1  UNL1       -0.0198
     30 C         138.6624  138.6535  164.3946 C.2     1  UNL1       -0.0041
     31 C         139.2696  139.3735  165.5621 C.2     1  UNL1        0.0009
     32 C         140.7086  139.1447  165.9183 C.2     1  UNL1        0.0155
@<TRIPOS>BOND
     1    21    22    1
     2    22    23    1
     3    22    20    1
     4    20    19    1
     5    19    18    1
     6    18     9    1
     7     9    10   ar
     8    10    11   ar
     9    11     1    1
    10     1     2    2
    11     2    24    1
    12    24    25    2
    13    25    26    1
    14    26    27    2
    15    27    28    1
    16    28    29    1
    17    29    30    2
    18    30    31    1
    19    31    32    2
    20     2     3    1
    21     3     4    2
    22     3     5   am
    23     5     6   am
    24     6     7    2
    25    11    12   ar
    26    12    13   ar
    27    13    14   ar
    28    14    15   ar
    29    15    16   ar
    30    16    17   ar
    31    17     9   ar
    32     6     1    1
    33    17    12   ar
    34    32    24    1
    35    32    27    1
    36     5     8    1
@<TRIPOS>MOLECULE
*****
 32 36 0 0 0
SMALL
GASTEIGER

@<TRIPOS>ATOM
      1 C         140.1078  140.4807  167.1257 C.2     1  UNL1        0.0596
      2 C         139.0976  139.4791  166.6499 C.2     1  UNL1        0.0597
      3 C         138.2572  139.0743  167.8246 C.2     1  UNL1        0.2519
      4 O         137.1249  138.0909  167.8015 O.2     1  UNL1       -0.2697
      5 N         138.7480  139.8258  169.0264 N.am    1  UNL1       -0.2483
      6 C         139.8917  140.6950  168.5945 C.2     1  UNL1        0.2519
      7 O         140.6807  141.6166  169.4767 O.2     1  UNL1       -0.2697
      8 H         138.3835  139.7601  169.9386 H       1  UNL1        0.1581
      9 N         142.3730  142.8247  165.0187 N.ar    1  UNL1       -0.3260
     10 C         141.1441  142.5856  165.8450 C.ar    1  UNL1        0.0760
     11 C         141.1509  141.1504  166.2811 C.ar    1  UNL1        0.0231
     12 C         142.3838  140.5025  165.7242 C.ar    1  UNL1        0.0174
     13 C         142.9163  139.1040  165.8268 C.ar    1  UNL1        0.0015
     14 C         144.2041  138.7402  165.1492 C.ar    1  UNL1        0.0001
     15 C         144.9594  139.7750  164.3690 C.ar    1  UNL1        0.0015
     16 C         144.4269  141.1735  164.2664 C.ar    1  UNL1        0.0172
     17 C         143.1391  141.5373  164.9440 C.ar    1  UNL1        0.0599
     18 C         142.7666  144.1232  164.3792 C.3     1  UNL1        0.1075
     19 C         142.4634  144.3682  162.9306 C.3     1  UNL1        0.0418
     20 C         141.0866  144.1034  162.3974 C.3     1  UNL1        0.0742
     21 C         139.7411  146.2306  161.7538 C.3     1  UNL1        0.0897
     22 N         139.9753  145.0714  162.6765 N.3     1  UNL1       -0.2703
     23 C         139.0983  144.8802  163.8782 C.3     1  UNL1        0.0897
     24 C         138.9532  138.9714  165.2459 C.2     1  UNL1        0.0248
     25 C         139.2516  137.5782  164.7770 C.2     1  UNL1        0.0986
     26 N         138.9679  137.5135  163.3055 N.2     1  UNL1       -0.2478
     27 C         138.4941  138.8668  162.8649 C.2     1  UNL1        0.0634
     28 C         138.0697  139.3950  161.5267 C.3     1  UNL1        0.0717
     29 C         137.6363  140.8244  161.3876 C.2     1  UNL1       -0.0198
     30 C         137.6272  141.7254  162.5867 C.2     1  UNL1       -0.0041
     31 C         138.0516  141.1972  163.9250 C.2     1  UNL1        0.0009
     32 C         138.4850  139.7679  164.0641 C.2     1  UNL1        0.0155
@<TRIPOS>BOND
     1    21    22    1
     2    22    23    1
     3    22    20    1
     4    20    19    1
     5    19    18    1
     6    18     9    1
     7     9    10   ar
     8    10    11   ar
     9    11     1    1
    10     1     2    2
    11     2    24    1
    12    24    25    2
    13    25    26    1
    14    26    27    2
    15    27    28    1
    16    28    29    1
    17    29    30    2
    18    30    31    1
    19    31    32    2
    20     2     3    1
    21     3     4    2
    22     3     5   am
    23     5     6   am
    24     6     7    2
    25    11    12   ar
    26    12    13   ar
    27    13    14   ar
    28    14    15   ar
    29    15    16   ar
    30    16    17   ar
    31    17     9   ar
    32     6     1    1
    33    17    12   ar
    34    32    24    1
    35    32    27    1
    36     5     8    1
@<TRIPOS>MOLECULE
*****
 32 36 0 0 0
SMALL
GASTEIGER

@<TRIPOS>ATOM
      1 C         140.2262  142.2201  168.3957 C.2     1  UNL1        0.0596
      2 C         139.7340  140.8301  168.6704 C.2     1  UNL1        0.0597
      3 C         139.7064  140.6333  170.1572 C.2     1  UNL1        0.2519
      4 O         139.2787  139.3870  170.8738 O.2     1  UNL1       -0.2697
      5 N         140.1816  141.9019  170.8014 N.am    1  UNL1       -0.2483
      6 C         140.5029  142.8825  169.7128 C.2     1  UNL1        0.2519
      7 O         141.0115  144.2802  169.9073 O.2     1  UNL1       -0.2697
      8 H         140.2675  142.0626  171.7689 H       1  UNL1        0.1581
      9 N         139.9602  143.9543  164.9335 N.ar    1  UNL1       -0.3260
     10 C         139.3335  143.4661  166.2059 C.ar    1  UNL1        0.0760
     11 C         140.4096  142.8391  167.0418 C.ar    1  UNL1        0.0231
     12 C         141.7015  142.9398  166.2861 C.ar    1  UNL1        0.0174
     13 C         143.0948  142.4929  166.6161 C.ar    1  UNL1        0.0015
     14 C         144.2103  142.7352  165.6431 C.ar    1  UNL1        0.0001
     15 C         143.9325  143.4244  164.3401 C.ar    1  UNL1        0.0015
     16 C         142.5392  143.8713  164.0101 C.ar    1  UNL1        0.0172
     17 C         141.4237  143.6290  164.9831 C.ar    1  UNL1        0.0599
     18 C         139.2484  144.6462  163.8090 C.3     1  UNL1        0.1075
     19 C         137.9505  144.0989  163.2933 C.3     1  UNL1        0.0418
     20 C         137.9478  143.1233  162.1539 C.3     1  UNL1        0.0742
     21 C         137.8344  141.1517  163.8419 C.3     1  UNL1        0.0897
     22 N         137.8686  141.6507  162.4278 N.3     1  UNL1       -0.2703
     23 C         137.8236  140.6770  161.2876 C.3     1  UNL1        0.0897
     24 C         139.3387  139.8150  167.6392 C.2     1  UNL1        0.0248
     25 C         137.9660  139.2414  167.4475 C.2     1  UNL1        0.0986
     26 N         138.0257  138.2671  166.3085 N.2     1  UNL1       -0.2478
     27 C         139.4353  138.2385  165.7964 C.2     1  UNL1        0.0634
     28 C         140.0847  137.4649  164.6874 C.3     1  UNL1        0.0717
     29 C         141.5458  137.6480  164.4009 C.2     1  UNL1       -0.0198
     30 C         142.3572  138.6045  165.2233 C.2     1  UNL1       -0.0041
     31 C         141.7078  139.3782  166.3323 C.2     1  UNL1        0.0009
     32 C         140.2468  139.1951  166.6188 C.2     1  UNL1        0.0155
@<TRIPOS>BOND
     1    21    22    1
     2    22    23    1
     3    22    20    1
     4    20    19    1
     5    19    18    1
     6    18     9    1
     7     9    10   ar
     8    10    11   ar
     9    11     1    1
    10     1     2    2
    11     2    24    1
    12    24    25    2
    13    25    26    1
    14    26    27    2
    15    27    28    1
    16    28    29    1
    17    29    30    2
    18    30    31    1
    19    31    32    2
    20     2     3    1
    21     3     4    2
    22     3     5   am
    23     5     6   am
    24     6     7    2
    25    11    12   ar
    26    12    13   ar
    27    13    14   ar
    28    14    15   ar
    29    15    16   ar
    30    16    17   ar
    31    17     9   ar
    32     6     1    1
    33    17    12   ar
    34    32    24    1
    35    32    27    1
    36     5     8    1
@<TRIPOS>MOLECULE
*****
 32 36 0 0 0
SMALL
GASTEIGER

@<TRIPOS>ATOM
      1 C         140.1930  140.3986  167.1404 C.2     1  UNL1        0.0596
      2 C         141.6367  140.6733  167.4406 C.2     1  UNL1        0.0597
      3 C         141.9082  140.2376  168.8501 C.2     1  UNL1        0.2519
      4 O         143.2245  140.3298  169.5633 O.2     1  UNL1       -0.2697
      5 N         140.6322  139.6936  169.4209 N.am    1  UNL1       -0.2483
      6 C         139.5721  139.7931  168.3643 C.2     1  UNL1        0.2519
      7 O         138.1423  139.3626  168.5067 O.2     1  UNL1       -0.2697
      8 H         140.5116  139.3343  170.3295 H       1  UNL1        0.1581
      9 N         138.3585  141.8367  164.0369 N.ar    1  UNL1       -0.3260
     10 C         138.9888  142.0165  165.3861 C.ar    1  UNL1        0.0760
     11 C         139.4930  140.6800  165.8439 C.ar    1  UNL1        0.0231
     12 C         139.1742  139.6742  164.7777 C.ar    1  UNL1        0.0174
     13 C         139.4318  138.1998  164.6795 C.ar    1  UNL1        0.0015
     14 C         138.9883  137.4403  163.4645 C.ar    1  UNL1        0.0001
     15 C         138.2871  138.1552  162.3477 C.ar    1  UNL1        0.0015
     16 C         138.0295  139.6296  162.4459 C.ar    1  UNL1        0.0172
     17 C         138.4731  140.3891  163.6609 C.ar    1  UNL1        0.0599
     18 C         137.7248  142.9151  163.2090 C.3     1  UNL1        0.1075
     19 C         138.0983  144.3505  163.4340 C.3     1  UNL1        0.0418
     20 C         139.2371  144.9577  162.6695 C.3     1  UNL1        0.0742
     21 C         141.4823  144.8266  163.9701 C.3     1  UNL1        0.0897
     22 N         140.6217  144.4003  162.8179 N.3     1  UNL1       -0.2703
     23 C         141.1458  143.4166  161.8141 C.3     1  UNL1        0.0897
     24 C         142.6339  141.2777  166.4971 C.2     1  UNL1        0.0248
     25 C         143.2704  142.6290  166.6336 C.2     1  UNL1        0.0986
     26 N         144.1996  142.8233  165.4722 N.2     1  UNL1       -0.2478
     27 C         144.1374  141.5920  164.6179 C.2     1  UNL1        0.0634
     28 C         144.8369  141.2172  163.3450 C.3     1  UNL1        0.0717
     29 C         144.5687  139.8870  162.7054 C.2     1  UNL1       -0.0198
     30 C         143.6011  138.9318  163.3387 C.2     1  UNL1       -0.0041
     31 C         142.9016  139.3066  164.6117 C.2     1  UNL1        0.0009
     32 C         143.1698  140.6367  165.2512 C.2     1  UNL1        0.0155
@<TRIPOS>BOND
     1    21    22    1
     2    22    23    1
     3    22    20    1
     4    20    19    1
     5    19    18    1
     6    18     9    1
     7     9    10   ar
     8    10    11   ar
     9    11     1    1
    10     1     2    2
    11     2    24    1
    12    24    25    2
    13    25    26    1
    14    26    27    2
    15    27    28    1
    16    28    29    1
    17    29    30    2
    18    30    31    1
    19    31    32    2
    20     2     3    1
    21     3     4    2
    22     3     5   am
    23     5     6   am
    24     6     7    2
    25    11    12   ar
    26    12    13   ar
    27    13    14   ar
    28    14    15   ar
    29    15    16   ar
    30    16    17   ar
    31    17     9   ar
    32     6     1    1
    33    17    12   ar
    34    32    24    1
    35    32    27    1
    36     5     8    1
@<TRIPOS>MOLECULE
*****
 32 36 0 0 0
SMALL
GASTEIGER

@<TRIPOS>ATOM
      1 C         140.6371  141.9511  168.2479 C.2     1  UNL1        0.0596
      2 C         139.7423  140.7478  168.2847 C.2     1  UNL1        0.0597
      3 C         139.2076  140.6101  169.6794 C.2     1  UNL1        0.2519
      4 O         138.2727  139.5419  170.1637 O.2     1  UNL1       -0.2697
      5 N         139.7720  141.7284  170.5046 N.am    1  UNL1       -0.2483
      6 C         140.6555  142.5571  169.6199 C.2     1  UNL1        0.2519
      7 O         141.4227  143.7776  170.0345 O.2     1  UNL1       -0.2697
      8 H         139.5939  141.8900  171.4592 H       1  UNL1        0.1581
      9 N         143.1669  142.9568  165.4813 N.ar    1  UNL1       -0.3260
     10 C         142.8515  142.2979  166.7914 C.ar    1  UNL1        0.0760
     11 C         141.3827  142.4591  167.0496 C.ar    1  UNL1        0.0231
     12 C         140.7904  143.2177  165.8991 C.ar    1  UNL1        0.0174
     13 C         139.3894  143.6681  165.6088 C.ar    1  UNL1        0.0015
     14 C         139.0911  144.4261  164.3492 C.ar    1  UNL1        0.0001
     15 C         140.1938  144.7336  163.3800 C.ar    1  UNL1        0.0015
     16 C         141.5948  144.2832  163.6703 C.ar    1  UNL1        0.0172
     17 C         141.8931  143.5253  164.9298 C.ar    1  UNL1        0.0599
     18 C         144.5188  143.0337  164.8360 C.3     1  UNL1        0.1075
     19 C         145.1734  141.7884  164.3154 C.3     1  UNL1        0.0418
     20 C         145.1193  141.4687  162.8509 C.3     1  UNL1        0.0742
     21 C         142.6443  140.9298  162.2732 C.3     1  UNL1        0.0897
     22 N         143.8755  141.7609  162.0650 N.3     1  UNL1       -0.2703
     23 C         143.8629  142.8841  161.0709 C.3     1  UNL1        0.0897
     24 C         139.4360  139.8413  167.1295 C.2     1  UNL1        0.0248
     25 C         138.0679  139.4610  166.6459 C.2     1  UNL1        0.0986
     26 N         138.2303  138.5406  165.4726 N.2     1  UNL1       -0.2478
     27 C         139.6987  138.3521  165.2311 C.2     1  UNL1        0.0634
     28 C         140.4535  137.5523  164.2111 C.3     1  UNL1        0.0717
     29 C         141.9536  137.5564  164.2150 C.2     1  UNL1       -0.0198
     30 C         142.6987  138.3602  165.2390 C.2     1  UNL1       -0.0041
     31 C         141.9439  139.1601  166.2591 C.2     1  UNL1        0.0009
     32 C         140.4439  139.1560  166.2551 C.2     1  UNL1        0.0155
@<TRIPOS>BOND
     1    21    22    1
     2    22    23    1
     3    22    20    1
     4    20    19    1
     5    19    18    1
     6    18     9    1
     7     9    10   ar
     8    10    11   ar
     9    11     1    1
    10     1     2    2
    11     2    24    1
    12    24    25    2
    13    25    26    1
    14    26    27    2
    15    27    28    1
    16    28    29    1
    17    29    30    2
    18    30    31    1
    19    31    32    2
    20     2     3    1
    21     3     4    2
    22     3     5   am
    23     5     6   am
    24     6     7    2
    25    11    12   ar
    26    12    13   ar
    27    13    14   ar
    28    14    15   ar
    29    15    16   ar
    30    16    17   ar
    31    17     9   ar
    32     6     1    1
    33    17    12   ar
    34    32    24    1
    35    32    27    1
    36     5     8    1
@<TRIPOS>MOLECULE
*****
 32 36 0 0 0
SMALL
GASTEIGER

@<TRIPOS>ATOM
      1 C         139.9862  140.8781  166.8223 C.2     1  UNL1        0.0596
      2 C         139.0454  139.9259  166.1455 C.2     1  UNL1        0.0597
      3 C         138.3153  139.1608  167.2092 C.2     1  UNL1        0.2519
      4 O         137.2778  138.1023  166.9791 O.2     1  UNL1       -0.2697
      5 N         138.8049  139.6402  168.5436 N.am    1  UNL1       -0.2483
      6 C         139.8376  140.7016  168.3044 C.2     1  UNL1        0.2519
      7 O         140.5896  141.4541  169.3619 O.2     1  UNL1       -0.2697
      8 H         138.5017  139.3154  169.4221 H       1  UNL1        0.1581
      9 N         142.9277  142.9655  165.3887 N.ar    1  UNL1       -0.3260
     10 C         142.4102  141.8359  166.2289 C.ar    1  UNL1        0.0760
     11 C         140.9130  141.8383  166.1373 C.ar    1  UNL1        0.0231
     12 C         140.5052  142.9694  165.2405 C.ar    1  UNL1        0.0174
     13 C         139.1610  143.4550  164.7855 C.ar    1  UNL1        0.0015
     14 C         139.0619  144.6373  163.8677 C.ar    1  UNL1        0.0001
     15 C         140.3071  145.3340  163.4050 C.ar    1  UNL1        0.0015
     16 C         141.6513  144.8484  163.8601 C.ar    1  UNL1        0.0172
     17 C         141.7504  143.6661  164.7778 C.ar    1  UNL1        0.0599
     18 C         144.3695  143.3306  165.1935 C.3     1  UNL1        0.1075
     19 C         145.2879  142.3953  164.4642 C.3     1  UNL1        0.0418
     20 C         144.9579  141.9569  163.0682 C.3     1  UNL1        0.0742
     21 C         144.1880  140.1003  161.4219 C.3     1  UNL1        0.0897
     22 N         144.6443  140.5169  162.7888 N.3     1  UNL1       -0.2703
     23 C         144.7870  139.4935  163.8761 C.3     1  UNL1        0.0897
     24 C         138.8662  139.7667  164.6648 C.2     1  UNL1        0.0248
     25 C         137.7213  140.2965  163.8532 C.2     1  UNL1        0.0986
     26 N         137.9479  139.9070  162.4225 N.2     1  UNL1       -0.2478
     27 C         139.2328  139.1364  162.3498 C.2     1  UNL1        0.0634
     28 C         139.9593  138.5025  161.2008 C.3     1  UNL1        0.0717
     29 C         141.2534  137.7818  161.4375 C.2     1  UNL1       -0.0198
     30 C         141.8209  137.6951  162.8232 C.2     1  UNL1       -0.0041
     31 C         141.0944  138.3291  163.9724 C.2     1  UNL1        0.0009
     32 C         139.8004  139.0497  163.7356 C.2     1  UNL1        0.0155
@<TRIPOS>BOND
     1    21    22    1
     2    22    23    1
     3    22    20    1
     4    20    19    1
     5    19    18    1
     6    18     9    1
     7     9    10   ar
     8    10    11   ar
     9    11     1    1
    10     1     2    2
    11     2    24    1
    12    24    25    2
    13    25    26    1
    14    26    27    2
    15    27    28    1
    16    28    29    1
    17    29    30    2
    18    30    31    1
    19    31    32    2
    20     2     3    1
    21     3     4    2
    22     3     5   am
    23     5     6   am
    24     6     7    2
    25    11    12   ar
    26    12    13   ar
    27    13    14   ar
    28    14    15   ar
    29    15    16   ar
    30    16    17   ar
    31    17     9   ar
    32     6     1    1
    33    17    12   ar
    34    32    24    1
    35    32    27    1
    36     5     8    1
@<TRIPOS>MOLECULE
*****
 32 36 0 0 0
SMALL
GASTEIGER

@<TRIPOS>ATOM
      1 C         143.0349  141.9329  162.4178 C.2     1  UNL1        0.0596
      2 C         142.1016  142.8162  161.6442 C.2     1  UNL1        0.0597
      3 C         142.9233  143.6513  160.7074 C.2     1  UNL1        0.2519
      4 O         142.3964  144.6741  159.7451 O.2     1  UNL1       -0.2697
      5 N         144.3646  143.2840  160.9022 N.am    1  UNL1       -0.2483
      6 C         144.4336  142.2219  161.9592 C.2     1  UNL1        0.2519
      7 O         145.6821  141.5645  162.4682 O.2     1  UNL1       -0.2697
      8 H         145.1308  143.6719  160.4207 H       1  UNL1        0.1581
      9 N         141.8569  138.9059  164.5426 N.ar    1  UNL1       -0.3260
     10 C         142.1260  139.5486  163.2143 C.ar    1  UNL1        0.0760
     11 C         142.6392  140.9355  163.4659 C.ar    1  UNL1        0.0231
     12 C         142.6872  141.1499  164.9498 C.ar    1  UNL1        0.0174
     13 C         143.1087  142.3252  165.7809 C.ar    1  UNL1        0.0015
     14 C         143.0467  142.2462  167.2775 C.ar    1  UNL1        0.0001
     15 C         142.5631  140.9919  167.9430 C.ar    1  UNL1        0.0015
     16 C         142.1416  139.8165  167.1118 C.ar    1  UNL1        0.0172
     17 C         142.2037  139.8955  165.6152 C.ar    1  UNL1        0.0599
     18 C         141.3329  137.5174  164.7602 C.3     1  UNL1        0.1075
     19 C         139.8599  137.2487  164.6689 C.3     1  UNL1        0.0418
     20 C         138.8831  138.2091  165.2801 C.3     1  UNL1        0.0742
     21 C         138.2539  139.5517  163.1468 C.3     1  UNL1        0.0897
     22 N         138.5974  139.5185  164.6066 N.3     1  UNL1       -0.2703
     23 C         138.6553  140.7947  165.3927 C.3     1  UNL1        0.0897
     24 C         140.6086  142.8573  161.7829 C.2     1  UNL1        0.0248
     25 C         139.6163  142.3158  160.7970 C.2     1  UNL1        0.0986
     26 N         138.2402  142.5710  161.3367 N.2     1  UNL1       -0.2478
     27 C         138.3820  143.2702  162.6562 C.2     1  UNL1        0.0634
     28 C         137.3675  143.7686  163.6422 C.3     1  UNL1        0.0717
     29 C         137.8167  144.4441  164.9040 C.2     1  UNL1       -0.0198
     30 C         139.2804  144.6210  165.1798 C.2     1  UNL1       -0.0041
     31 C         140.2951  144.1226  164.1938 C.2     1  UNL1        0.0009
     32 C         139.8458  143.4472  162.9320 C.2     1  UNL1        0.0155
@<TRIPOS>BOND
     1    21    22    1
     2    22    23    1
     3    22    20    1
     4    20    19    1
     5    19    18    1
     6    18     9    1
     7     9    10   ar
     8    10    11   ar
     9    11     1    1
    10     1     2    2
    11     2    24    1
    12    24    25    2
    13    25    26    1
    14    26    27    2
    15    27    28    1
    16    28    29    1
    17    29    30    2
    18    30    31    1
    19    31    32    2
    20     2     3    1
    21     3     4    2
    22     3     5   am
    23     5     6   am
    24     6     7    2
    25    11    12   ar
    26    12    13   ar
    27    13    14   ar
    28    14    15   ar
    29    15    16   ar
    30    16    17   ar
    31    17     9   ar
    32     6     1    1
    33    17    12   ar
    34    32    24    1
    35    32    27    1
    36     5     8    1
