@<TRIPOS>MOLECULE
*****
 29 33 0 0 0
SMALL
GASTEIGER

@<TRIPOS>ATOM
      1 C         138.6617  139.6656  155.8887 C.ar    1  UNL1        0.1902
      2 N         139.4945  139.0515  154.8027 N.ar    1  UNL1       -0.1269
      3 N         140.6772  138.3887  155.4444 N.ar    1  UNL1       -0.1316
      4 C         140.5754  138.5932  156.9269 C.ar    1  UNL1        0.1615
      5 N         139.3297  139.3824  157.2015 N.ar    1  UNL1       -0.2940
      6 C         138.9646  139.7411  158.6114 C.3     1  UNL1        0.1302
      7 C         139.8453  139.3107  159.7469 C.3     1  UNL1        0.1186
      8 N         141.0910  138.5215  159.4724 N.am    1  UNL1       -0.2688
      9 C         141.9717  138.0910  160.6078 C.2     1  UNL1        0.2493
     10 O         143.2174  137.3018  160.3332 O.2     1  UNL1       -0.2699
     11 C         141.4561  138.1627  158.0623 C.3     1  UNL1        0.1343
     12 C         142.7018  137.3735  157.7878 C.3     1  UNL1        0.0298
     13 C         133.5336  140.9106  155.7071 C.3     1  UNL1        0.0527
     14 C         135.0278  141.0012  155.6123 C.ar    1  UNL1        0.0665
     15 C         135.8127  142.2061  155.1852 C.ar    1  UNL1        0.0517
     16 S         137.2695  141.8524  155.2368 S.2     1  UNL1       -0.0633
     17 C         137.3850  140.4290  155.6957 C.ar    1  UNL1        0.1462
     18 N         135.9995  139.9029  155.9277 N.ar    1  UNL1       -0.2395
     19 C         141.6066  138.4498  162.0177 C.ar    1  UNL1        0.0536
     20 C         142.0075  139.7810  162.5807 C.ar    1  UNL1        0.0045
     21 C         141.6424  140.1398  163.9907 C.ar    1  UNL1        0.0006
     22 C         140.8764  139.1673  164.8376 C.ar    1  UNL1        0.0060
     23 C         140.4754  137.8360  164.2747 C.ar    1  UNL1        0.0006
     24 C         140.8405  137.4772  162.8647 C.ar    1  UNL1        0.0045
     25 C         140.5113  139.5260  166.2477 C.ar    1  UNL1        0.0295
     26 C         139.1247  139.5561  166.8189 C.ar    1  UNL1        0.0070
     27 C         139.2251  139.9663  168.2583 C.ar    1  UNL1        0.0075
     28 C         140.6739  140.1897  168.5766 C.ar    1  UNL1        0.0354
     29 S         141.4688  139.9176  167.3339 S.2     1  UNL1       -0.0864
@<TRIPOS>BOND
     1    13    14    1
     2    14    15   ar
     3    15    16   ar
     4    16    17   ar
     5    17     1    1
     6     1     2   ar
     7     2     3   ar
     8     3     4   ar
     9     4     5   ar
    10     5     6    1
    11     6     7    1
    12     7     8    1
    13     8     9   am
    14     9    10    2
    15     9    19    1
    16    19    20   ar
    17    20    21   ar
    18    21    22   ar
    19    22    25    1
    20    25    26   ar
    21    26    27   ar
    22    27    28   ar
    23    28    29   ar
    24    22    23   ar
    25    23    24   ar
    26     8    11    1
    27    11    12    1
    28    17    18   ar
    29    18    14   ar
    30     5     1   ar
    31    24    19   ar
    32    11     4    1
    33    29    25   ar
@<TRIPOS>MOLECULE
*****
 29 33 0 0 0
SMALL
GASTEIGER

@<TRIPOS>ATOM
      1 C         138.8698  142.2789  158.5492 C.ar    1  UNL1        0.1902
      2 N         137.9779  141.3567  157.7720 N.ar    1  UNL1       -0.1269
      3 N         137.6556  140.1796  158.6441 N.ar    1  UNL1       -0.1316
      4 C         138.3483  140.3743  159.9603 C.ar    1  UNL1        0.1615
      5 N         139.0986  141.6718  159.9016 N.ar    1  UNL1       -0.2940
      6 C         139.8934  142.1328  161.0873 C.3     1  UNL1        0.1302
      7 C         139.9377  141.2963  162.3317 C.3     1  UNL1        0.1186
      8 N         139.1874  139.9988  162.3903 N.am    1  UNL1       -0.2688
      9 C         139.2317  139.1623  163.6346 C.2     1  UNL1        0.2493
     10 O         138.4813  137.8648  163.6932 O.2     1  UNL1       -0.2699
     11 C         138.3926  139.5378  161.2045 C.3     1  UNL1        0.1343
     12 C         137.6422  138.2404  161.2631 C.3     1  UNL1        0.0298
     13 C         140.0943  146.3703  155.4441 C.3     1  UNL1        0.0527
     14 C         139.9966  145.4605  156.6327 C.ar    1  UNL1        0.0665
     15 C         140.6066  145.7034  157.9814 C.ar    1  UNL1        0.0517
     16 S         140.2587  144.5410  158.8635 S.2     1  UNL1       -0.0633
     17 C         139.4337  143.5799  158.0600 C.ar    1  UNL1        0.1462
     18 N         139.2717  144.1482  156.6812 N.ar    1  UNL1       -0.2395
     19 C         140.0264  139.6233  164.8202 C.ar    1  UNL1        0.0536
     20 C         141.4553  139.1951  164.9778 C.ar    1  UNL1        0.0045
     21 C         142.2501  139.6562  166.1635 C.ar    1  UNL1        0.0006
     22 C         141.6159  140.5454  167.1916 C.ar    1  UNL1        0.0060
     23 C         140.1870  140.9736  167.0341 C.ar    1  UNL1        0.0006
     24 C         139.3922  140.5126  165.8484 C.ar    1  UNL1        0.0045
     25 C         142.4106  141.0064  168.3774 C.ar    1  UNL1        0.0295
     26 C         143.1672  142.2973  168.4838 C.ar    1  UNL1        0.0070
     27 C         143.8124  142.3462  169.8370 C.ar    1  UNL1        0.0075
     28 C         143.4547  141.0855  170.5670 C.ar    1  UNL1        0.0354
     29 S         142.5882  140.2575  169.6648 S.2     1  UNL1       -0.0864
@<TRIPOS>BOND
     1    13    14    1
     2    14    15   ar
     3    15    16   ar
     4    16    17   ar
     5    17     1    1
     6     1     2   ar
     7     2     3   ar
     8     3     4   ar
     9     4     5   ar
    10     5     6    1
    11     6     7    1
    12     7     8    1
    13     8     9   am
    14     9    10    2
    15     9    19    1
    16    19    20   ar
    17    20    21   ar
    18    21    22   ar
    19    22    25    1
    20    25    26   ar
    21    26    27   ar
    22    27    28   ar
    23    28    29   ar
    24    22    23   ar
    25    23    24   ar
    26     8    11    1
    27    11    12    1
    28    17    18   ar
    29    18    14   ar
    30     5     1   ar
    31    24    19   ar
    32    11     4    1
    33    29    25   ar
@<TRIPOS>MOLECULE
*****
 29 33 0 0 0
SMALL
GASTEIGER

@<TRIPOS>ATOM
      1 C         142.7407  140.0106  158.1907 C.ar    1  UNL1        0.1902
      2 N         141.9145  139.0941  157.3379 N.ar    1  UNL1       -0.1269
      3 N         140.8142  138.5346  158.1901 N.ar    1  UNL1       -0.1316
      4 C         140.9604  139.1053  159.5695 C.ar    1  UNL1        0.1615
      5 N         142.1511  140.0175  159.5699 N.ar    1  UNL1       -0.2940
      6 C         142.5446  140.7366  160.8261 C.3     1  UNL1        0.1302
      7 C         141.7473  140.5435  162.0820 C.3     1  UNL1        0.1186
      8 N         140.5566  139.6312  162.0816 N.am    1  UNL1       -0.2688
      9 C         139.7594  139.4381  163.3374 C.2     1  UNL1        0.2493
     10 O         138.5686  138.5258  163.3370 O.2     1  UNL1       -0.2699
     11 C         140.1631  138.9121  160.8253 C.3     1  UNL1        0.1343
     12 C         138.9724  137.9999  160.8249 C.3     1  UNL1        0.0298
     13 C         147.1202  141.4329  155.6066 C.3     1  UNL1        0.0527
     14 C         145.9582  141.4381  156.5551 C.ar    1  UNL1        0.0665
     15 C         145.6392  142.5121  157.5526 C.ar    1  UNL1        0.0517
     16 S         144.3950  142.1080  158.2867 S.2     1  UNL1       -0.0633
     17 C         143.9452  140.7844  157.7429 C.ar    1  UNL1        0.1462
     18 N         144.9113  140.3704  156.6728 N.ar    1  UNL1       -0.2395
     19 C         140.1528  140.1572  164.5936 C.ar    1  UNL1        0.0536
     20 C         141.0711  139.4974  165.5792 C.ar    1  UNL1        0.0045
     21 C         141.4646  140.2166  166.8354 C.ar    1  UNL1        0.0006
     22 C         140.9398  141.5954  167.1060 C.ar    1  UNL1        0.0060
     23 C         140.0215  142.2552  166.1204 C.ar    1  UNL1        0.0006
     24 C         139.6280  141.5361  164.8642 C.ar    1  UNL1        0.0045
     25 C         141.3332  142.3146  168.3622 C.ar    1  UNL1        0.0295
     26 C         140.4913  143.3036  169.1126 C.ar    1  UNL1        0.0070
     27 C         141.2754  143.7712  170.3027 C.ar    1  UNL1        0.0075
     28 C         142.6021  143.0712  170.2879 C.ar    1  UNL1        0.0354
     29 S         142.6378  142.1710  169.0885 S.2     1  UNL1       -0.0864
@<TRIPOS>BOND
     1    13    14    1
     2    14    15   ar
     3    15    16   ar
     4    16    17   ar
     5    17     1    1
     6     1     2   ar
     7     2     3   ar
     8     3     4   ar
     9     4     5   ar
    10     5     6    1
    11     6     7    1
    12     7     8    1
    13     8     9   am
    14     9    10    2
    15     9    19    1
    16    19    20   ar
    17    20    21   ar
    18    21    22   ar
    19    22    25    1
    20    25    26   ar
    21    26    27   ar
    22    27    28   ar
    23    28    29   ar
    24    22    23   ar
    25    23    24   ar
    26     8    11    1
    27    11    12    1
    28    17    18   ar
    29    18    14   ar
    30     5     1   ar
    31    24    19   ar
    32    11     4    1
    33    29    25   ar
@<TRIPOS>MOLECULE
*****
 29 33 0 0 0
SMALL
GASTEIGER

@<TRIPOS>ATOM
      1 C         135.5294  141.8138  155.0687 C.ar    1  UNL1        0.1902
      2 N         135.5660  142.1934  153.6180 N.ar    1  UNL1       -0.1269
      3 N         136.8329  142.9575  153.3707 N.ar    1  UNL1       -0.1316
      4 C         137.5792  143.0501  154.6686 C.ar    1  UNL1        0.1615
      5 N         136.7736  142.3433  155.7180 N.ar    1  UNL1       -0.2940
      6 C         137.2770  142.2731  157.1292 C.3     1  UNL1        0.1302
      7 C         138.5861  142.9098  157.4911 C.3     1  UNL1        0.1186
      8 N         139.3917  143.6167  156.4417 N.am    1  UNL1       -0.2688
      9 C         140.7008  144.2533  156.8035 C.2     1  UNL1        0.2493
     10 O         141.5065  144.9602  155.7541 O.2     1  UNL1       -0.2699
     11 C         138.8883  143.6868  155.0304 C.3     1  UNL1        0.1343
     12 C         139.6939  144.3937  153.9810 C.3     1  UNL1        0.0298
     13 C         132.9989  138.4320  158.2374 C.3     1  UNL1        0.0527
     14 C         133.2767  139.4860  157.2069 C.ar    1  UNL1        0.0665
     15 C         132.2495  140.2148  156.3922 C.ar    1  UNL1        0.0517
     16 S         132.9684  141.1756  155.4920 S.2     1  UNL1       -0.0633
     17 C         134.4398  141.0405  155.7504 C.ar    1  UNL1        0.1462
     18 N         134.6303  139.9963  156.8103 N.ar    1  UNL1       -0.2395
     19 C         141.2042  144.1832  158.2147 C.ar    1  UNL1        0.0536
     20 C         142.2530  143.1777  158.5878 C.ar    1  UNL1        0.0045
     21 C         142.7564  143.1076  159.9991 C.ar    1  UNL1        0.0006
     22 C         142.2110  144.0428  161.0373 C.ar    1  UNL1        0.0060
     23 C         141.1622  145.0483  160.6642 C.ar    1  UNL1        0.0006
     24 C         140.6588  145.1184  159.2530 C.ar    1  UNL1        0.0045
     25 C         142.7144  143.9727  162.4486 C.ar    1  UNL1        0.0295
     26 C         143.7991  144.8227  163.0411 C.ar    1  UNL1        0.0070
     27 C         143.9765  144.4156  164.4738 C.ar    1  UNL1        0.0075
     28 C         143.0015  143.3139  164.7668 C.ar    1  UNL1        0.0354
     29 S         142.2215  143.0402  163.5151 S.2     1  UNL1       -0.0864
@<TRIPOS>BOND
     1    13    14    1
     2    14    15   ar
     3    15    16   ar
     4    16    17   ar
     5    17     1    1
     6     1     2   ar
     7     2     3   ar
     8     3     4   ar
     9     4     5   ar
    10     5     6    1
    11     6     7    1
    12     7     8    1
    13     8     9   am
    14     9    10    2
    15     9    19    1
    16    19    20   ar
    17    20    21   ar
    18    21    22   ar
    19    22    25    1
    20    25    26   ar
    21    26    27   ar
    22    27    28   ar
    23    28    29   ar
    24    22    23   ar
    25    23    24   ar
    26     8    11    1
    27    11    12    1
    28    17    18   ar
    29    18    14   ar
    30     5     1   ar
    31    24    19   ar
    32    11     4    1
    33    29    25   ar
@<TRIPOS>MOLECULE
*****
 29 33 0 0 0
SMALL
GASTEIGER

@<TRIPOS>ATOM
      1 C         140.6708  141.2220  157.9642 C.ar    1  UNL1        0.1902
      2 N         140.4240  142.4282  157.1074 N.ar    1  UNL1       -0.1269
      3 N         140.4593  143.6396  157.9912 N.ar    1  UNL1       -0.1316
      4 C         140.7279  143.1821  159.3943 C.ar    1  UNL1        0.1615
      5 N         140.8586  141.6879  159.3775 N.ar    1  UNL1       -0.2940
      6 C         141.1318  140.9446  160.6514 C.3     1  UNL1        0.1302
      7 C         141.2743  141.6955  161.9422 C.3     1  UNL1        0.1186
      8 N         141.1436  143.1897  161.9589 N.am    1  UNL1       -0.2688
      9 C         141.2861  143.9407  163.2495 C.2     1  UNL1        0.2493
     10 O         141.1554  145.4349  163.2663 O.2     1  UNL1       -0.2699
     11 C         140.8704  143.9330  160.6849 C.3     1  UNL1        0.1343
     12 C         140.7397  145.4272  160.7016 C.3     1  UNL1        0.0298
     13 C         142.4135  136.3759  156.7983 C.3     1  UNL1        0.0527
     14 C         141.5220  137.5721  156.9548 C.ar    1  UNL1        0.0665
     15 C         140.0744  137.6492  156.5695 C.ar    1  UNL1        0.0517
     16 S         139.5793  139.0259  156.9007 S.2     1  UNL1       -0.0633
     17 C         140.7210  139.7995  157.4907 C.ar    1  UNL1        0.1462
     18 N         141.9216  138.9011  157.5242 N.ar    1  UNL1       -0.2395
     19 C         141.5593  143.1974  164.5234 C.ar    1  UNL1        0.0536
     20 C         142.9705  142.8727  164.9144 C.ar    1  UNL1        0.0045
     21 C         143.2437  142.1294  166.1884 C.ar    1  UNL1        0.0006
     22 C         142.1056  141.7108  167.0713 C.ar    1  UNL1        0.0060
     23 C         140.6944  142.0355  166.6803 C.ar    1  UNL1        0.0006
     24 C         140.4212  142.7787  165.4064 C.ar    1  UNL1        0.0045
     25 C         142.3788  140.9675  168.3453 C.ar    1  UNL1        0.0295
     26 C         142.2071  139.4929  168.5599 C.ar    1  UNL1        0.0070
     27 C         142.5938  139.1823  169.9755 C.ar    1  UNL1        0.0075
     28 C         143.0045  140.4651  170.6359 C.ar    1  UNL1        0.0354
     29 S         142.8716  141.5684  169.6283 S.2     1  UNL1       -0.0864
@<TRIPOS>BOND
     1    13    14    1
     2    14    15   ar
     3    15    16   ar
     4    16    17   ar
     5    17     1    1
     6     1     2   ar
     7     2     3   ar
     8     3     4   ar
     9     4     5   ar
    10     5     6    1
    11     6     7    1
    12     7     8    1
    13     8     9   am
    14     9    10    2
    15     9    19    1
    16    19    20   ar
    17    20    21   ar
    18    21    22   ar
    19    22    25    1
    20    25    26   ar
    21    26    27   ar
    22    27    28   ar
    23    28    29   ar
    24    22    23   ar
    25    23    24   ar
    26     8    11    1
    27    11    12    1
    28    17    18   ar
    29    18    14   ar
    30     5     1   ar
    31    24    19   ar
    32    11     4    1
    33    29    25   ar
@<TRIPOS>MOLECULE
*****
 29 33 0 0 0
SMALL
GASTEIGER

@<TRIPOS>ATOM
      1 C         138.4722  141.4730  163.3553 C.ar    1  UNL1        0.1902
      2 N         137.8034  142.7989  163.1440 N.ar    1  UNL1       -0.1269
      3 N         137.7919  143.0827  161.6711 N.ar    1  UNL1       -0.1316
      4 C         138.4536  141.9322  160.9722 C.ar    1  UNL1        0.1615
      5 N         138.8741  140.9374  162.0131 N.ar    1  UNL1       -0.2940
      6 C         139.5686  139.6723  161.6043 C.3     1  UNL1        0.1302
      7 C         139.8426  139.4020  160.1544 C.3     1  UNL1        0.1186
      8 N         139.4221  140.3968  159.1135 N.am    1  UNL1       -0.2688
      9 C         139.6961  140.1265  157.6638 C.2     1  UNL1        0.2493
     10 O         139.2756  141.1214  156.6229 O.2     1  UNL1       -0.2699
     11 C         138.7276  141.6619  159.5224 C.3     1  UNL1        0.1343
     12 C         138.3071  142.6568  158.4815 C.3     1  UNL1        0.0298
     13 C         140.1249  140.4961  168.2742 C.3     1  UNL1        0.0527
     14 C         139.4591  140.3518  166.9378 C.ar    1  UNL1        0.0665
     15 C         138.6389  139.1810  166.4834 C.ar    1  UNL1        0.0517
     16 S         138.1694  139.4585  165.0859 S.2     1  UNL1       -0.0633
     17 C         138.6994  140.8008  164.6769 C.ar    1  UNL1        0.1462
     18 N         139.4965  141.3529  165.8214 N.ar    1  UNL1       -0.2395
     19 C         140.3905  138.8615  157.2549 C.ar    1  UNL1        0.0536
     20 C         139.6474  137.8153  156.4782 C.ar    1  UNL1        0.0045
     21 C         140.3420  136.5501  156.0693 C.ar    1  UNL1        0.0006
     22 C         141.7796  136.3312  156.4372 C.ar    1  UNL1        0.0060
     23 C         142.5227  137.3774  157.2139 C.ar    1  UNL1        0.0006
     24 C         141.8282  138.6425  157.6228 C.ar    1  UNL1        0.0045
     25 C         142.4742  135.0661  156.0284 C.ar    1  UNL1        0.0295
     26 C         142.2216  134.2884  154.7708 C.ar    1  UNL1        0.0070
     27 C         143.1345  133.0983  154.7706 C.ar    1  UNL1        0.0075
     28 C         143.9514  133.1404  156.0280 C.ar    1  UNL1        0.0354
     29 S         143.5432  134.3566  156.8054 S.2     1  UNL1       -0.0864
@<TRIPOS>BOND
     1    13    14    1
     2    14    15   ar
     3    15    16   ar
     4    16    17   ar
     5    17     1    1
     6     1     2   ar
     7     2     3   ar
     8     3     4   ar
     9     4     5   ar
    10     5     6    1
    11     6     7    1
    12     7     8    1
    13     8     9   am
    14     9    10    2
    15     9    19    1
    16    19    20   ar
    17    20    21   ar
    18    21    22   ar
    19    22    25    1
    20    25    26   ar
    21    26    27   ar
    22    27    28   ar
    23    28    29   ar
    24    22    23   ar
    25    23    24   ar
    26     8    11    1
    27    11    12    1
    28    17    18   ar
    29    18    14   ar
    30     5     1   ar
    31    24    19   ar
    32    11     4    1
    33    29    25   ar
@<TRIPOS>MOLECULE
*****
 29 33 0 0 0
SMALL
GASTEIGER

@<TRIPOS>ATOM
      1 C         140.2945  140.1555  158.1869 C.ar    1  UNL1        0.1902
      2 N         141.2858  139.4068  157.3463 N.ar    1  UNL1       -0.1269
      3 N         142.3840  138.9223  158.2459 N.ar    1  UNL1       -0.1316
      4 C         142.0715  139.3717  159.6424 C.ar    1  UNL1        0.1615
      5 N         140.7801  140.1339  159.6060 N.ar    1  UNL1       -0.2940
      6 C         140.2131  140.7097  160.8697 C.3     1  UNL1        0.1302
      7 C         140.9376  140.5234  162.1699 C.3     1  UNL1        0.1186
      8 N         142.2291  139.7612  162.2063 N.am    1  UNL1       -0.2688
      9 C         142.9535  139.5748  163.5064 C.2     1  UNL1        0.2493
     10 O         144.2450  138.8127  163.5429 O.2     1  UNL1       -0.2699
     11 C         142.7960  139.1854  160.9425 C.3     1  UNL1        0.1343
     12 C         144.0874  138.4232  160.9790 C.3     1  UNL1        0.0298
     13 C         135.5050  140.8937  156.0902 C.3     1  UNL1        0.0527
     14 C         136.8367  141.1502  156.7312 C.ar    1  UNL1        0.0665
     15 C         137.3730  142.4888  157.1443 C.ar    1  UNL1        0.0517
     16 S         138.7337  142.2790  157.7400 S.2     1  UNL1       -0.0633
     17 C         139.0382  140.8110  157.6949 C.ar    1  UNL1        0.1462
     18 N         137.8657  140.1133  157.0714 N.ar    1  UNL1       -0.2395
     19 C         142.3866  140.1507  164.7701 C.ar    1  UNL1        0.0536
     20 C         141.3401  139.3957  165.5349 C.ar    1  UNL1        0.0045
     21 C         140.7732  139.9716  166.7987 C.ar    1  UNL1        0.0006
     22 C         141.2528  141.3024  167.2976 C.ar    1  UNL1        0.0060
     23 C         142.2993  142.0574  166.5328 C.ar    1  UNL1        0.0006
     24 C         142.8662  141.4815  165.2691 C.ar    1  UNL1        0.0045
     25 C         140.6859  141.8783  168.5613 C.ar    1  UNL1        0.0295
     26 C         140.6683  143.3300  168.9385 C.ar    1  UNL1        0.0070
     27 C         140.0086  143.4525  170.2800 C.ar    1  UNL1        0.0075
     28 C         139.6184  142.0764  170.7320 C.ar    1  UNL1        0.0354
     29 S         140.0370  141.1035  169.6698 S.2     1  UNL1       -0.0864
@<TRIPOS>BOND
     1    13    14    1
     2    14    15   ar
     3    15    16   ar
     4    16    17   ar
     5    17     1    1
     6     1     2   ar
     7     2     3   ar
     8     3     4   ar
     9     4     5   ar
    10     5     6    1
    11     6     7    1
    12     7     8    1
    13     8     9   am
    14     9    10    2
    15     9    19    1
    16    19    20   ar
    17    20    21   ar
    18    21    22   ar
    19    22    25    1
    20    25    26   ar
    21    26    27   ar
    22    27    28   ar
    23    28    29   ar
    24    22    23   ar
    25    23    24   ar
    26     8    11    1
    27    11    12    1
    28    17    18   ar
    29    18    14   ar
    30     5     1   ar
    31    24    19   ar
    32    11     4    1
    33    29    25   ar
@<TRIPOS>MOLECULE
*****
 29 33 0 0 0
SMALL
GASTEIGER

@<TRIPOS>ATOM
      1 C         140.2031  140.3961  167.1613 C.ar    1  UNL1        0.1902
      2 N         139.0085  139.5758  167.5485 N.ar    1  UNL1       -0.1269
      3 N         138.5280  138.8512  166.3263 N.ar    1  UNL1       -0.1316
      4 C         139.4255  139.2236  165.1836 C.ar    1  UNL1        0.1615
      5 N         140.4609  140.1785  165.6997 N.ar    1  UNL1       -0.2940
      6 C         141.5045  140.7264  164.7721 C.3     1  UNL1        0.1302
      7 C         141.5129  140.3195  163.3283 C.3     1  UNL1        0.1186
      8 N         140.4775  139.3646  162.8122 N.am    1  UNL1       -0.2688
      9 C         140.4858  138.9577  161.3685 C.2     1  UNL1        0.2493
     10 O         139.4505  138.0028  160.8525 O.2     1  UNL1       -0.2699
     11 C         139.4338  138.8167  163.7399 C.3     1  UNL1        0.1343
     12 C         138.3985  137.8618  163.2239 C.3     1  UNL1        0.0298
     13 C         144.2158  142.4934  169.8780 C.3     1  UNL1        0.0527
     14 C         142.8446  142.2431  169.3239 C.ar    1  UNL1        0.0665
     15 C         141.6087  143.0326  169.6390 C.ar    1  UNL1        0.0517
     16 S         140.4687  142.4368  168.8672 S.2     1  UNL1       -0.0633
     17 C         141.0001  141.2791  168.0751 C.ar    1  UNL1        0.1462
     18 N         142.4685  141.1594  168.3574 N.ar    1  UNL1       -0.2395
     19 C         141.5295  139.5056  160.4409 C.ar    1  UNL1        0.0536
     20 C         142.9114  138.9223  160.4384 C.ar    1  UNL1        0.0045
     21 C         143.9551  139.4703  159.5107 C.ar    1  UNL1        0.0006
     22 C         143.6168  140.6015  158.5856 C.ar    1  UNL1        0.0060
     23 C         142.2349  141.1848  158.5881 C.ar    1  UNL1        0.0006
     24 C         141.1912  140.6369  159.5157 C.ar    1  UNL1        0.0045
     25 C         144.6605  141.1495  157.6579 C.ar    1  UNL1        0.0295
     26 C         145.5030  142.3668  157.8992 C.ar    1  UNL1        0.0070
     27 C         146.4081  142.5460  156.7165 C.ar    1  UNL1        0.0075
     28 C         146.1249  141.4394  155.7442 C.ar    1  UNL1        0.0354
     29 S         145.0447  140.5763  156.3261 S.2     1  UNL1       -0.0864
@<TRIPOS>BOND
     1    13    14    1
     2    14    15   ar
     3    15    16   ar
     4    16    17   ar
     5    17     1    1
     6     1     2   ar
     7     2     3   ar
     8     3     4   ar
     9     4     5   ar
    10     5     6    1
    11     6     7    1
    12     7     8    1
    13     8     9   am
    14     9    10    2
    15     9    19    1
    16    19    20   ar
    17    20    21   ar
    18    21    22   ar
    19    22    25    1
    20    25    26   ar
    21    26    27   ar
    22    27    28   ar
    23    28    29   ar
    24    22    23   ar
    25    23    24   ar
    26     8    11    1
    27    11    12    1
    28    17    18   ar
    29    18    14   ar
    30     5     1   ar
    31    24    19   ar
    32    11     4    1
    33    29    25   ar
@<TRIPOS>MOLECULE
*****
 29 33 0 0 0
SMALL
GASTEIGER

@<TRIPOS>ATOM
      1 C         140.4943  138.1906  156.5795 C.ar    1  UNL1        0.1902
      2 N         139.8469  138.8756  155.4126 N.ar    1  UNL1       -0.1269
      3 N         139.0746  140.0505  155.9351 N.ar    1  UNL1       -0.1316
      4 C         139.2446  140.0917  157.4249 C.ar    1  UNL1        0.1615
      5 N         140.1220  138.9422  157.8232 N.ar    1  UNL1       -0.2940
      6 C         140.4687  138.7283  159.2668 C.3     1  UNL1        0.1302
      7 C         139.9379  139.6640  160.3122 C.3     1  UNL1        0.1186
      8 N         139.0605  140.8136  159.9139 N.am    1  UNL1       -0.2688
      9 C         138.5297  141.7493  160.9592 C.2     1  UNL1        0.2493
     10 O         137.6523  142.8988  160.5609 O.2     1  UNL1       -0.2699
     11 C         138.7138  141.0274  158.4702 C.3     1  UNL1        0.1343
     12 C         137.8364  142.1769  158.0719 C.3     1  UNL1        0.0298
     13 C         142.2803  133.3555  155.4339 C.3     1  UNL1        0.0527
     14 C         142.1825  134.7460  155.9877 C.ar    1  UNL1        0.0665
     15 C         143.2101  135.4298  156.8402 C.ar    1  UNL1        0.0517
     16 S         142.7027  136.8034  157.1656 S.2     1  UNL1       -0.0633
     17 C         141.3616  136.9685  156.5143 C.ar    1  UNL1        0.1462
     18 N         141.0401  135.6970  155.7863 N.ar    1  UNL1       -0.2395
     19 C         138.8764  141.5354  162.4028 C.ar    1  UNL1        0.0536
     20 C         140.1107  142.1637  162.9787 C.ar    1  UNL1        0.0045
     21 C         140.4574  141.9498  164.4224 C.ar    1  UNL1        0.0006
     22 C         139.5697  141.1077  165.2901 C.ar    1  UNL1        0.0060
     23 C         138.3354  140.4794  164.7141 C.ar    1  UNL1        0.0006
     24 C         137.9887  140.6933  163.2705 C.ar    1  UNL1        0.0045
     25 C         139.9164  140.8938  166.7338 C.ar    1  UNL1        0.0295
     26 C         139.2795  139.8960  167.6550 C.ar    1  UNL1        0.0070
     27 C         139.9303  140.0257  169.0002 C.ar    1  UNL1        0.0075
     28 C         140.9694  141.1038  168.9104 C.ar    1  UNL1        0.0354
     29 S         140.9608  141.6403  167.5096 S.2     1  UNL1       -0.0864
@<TRIPOS>BOND
     1    13    14    1
     2    14    15   ar
     3    15    16   ar
     4    16    17   ar
     5    17     1    1
     6     1     2   ar
     7     2     3   ar
     8     3     4   ar
     9     4     5   ar
    10     5     6    1
    11     6     7    1
    12     7     8    1
    13     8     9   am
    14     9    10    2
    15     9    19    1
    16    19    20   ar
    17    20    21   ar
    18    21    22   ar
    19    22    25    1
    20    25    26   ar
    21    26    27   ar
    22    27    28   ar
    23    28    29   ar
    24    22    23   ar
    25    23    24   ar
    26     8    11    1
    27    11    12    1
    28    17    18   ar
    29    18    14   ar
    30     5     1   ar
    31    24    19   ar
    32    11     4    1
    33    29    25   ar
