@<TRIPOS>MOLECULE
*****
 34 38 0 0 0
SMALL
GASTEIGER

@<TRIPOS>ATOM
      1 N         142.4105  142.4260  165.1393 N.3     1  UNL1       -0.2655
      2 C         143.4350  142.1457  164.0803 C.3     1  UNL1        0.1132
      3 C         143.2416  142.6759  162.6905 C.3     1  UNL1        0.1849
      4 N         142.0235  143.4864  162.3599 N.pl3   1  UNL1       -0.1905
      5 C         140.9989  143.7667  163.4190 C.3     1  UNL1        0.1849
      6 C         141.1924  143.2365  164.8087 C.3     1  UNL1        0.1132
      7 C         141.8300  144.0167  160.9701 C.cat   1  UNL1        0.4230
      8 N         140.7293  144.9314  160.5207 N.2     1  UNL1       -0.0678
      9 C         140.9222  145.2054  159.0586 C.2     1  UNL1        0.1887
     10 C         140.1447  146.0372  158.0822 C.2     1  UNL1        0.0433
     11 C         140.5870  146.1238  156.6515 C.2     1  UNL1        0.0706
     12 C         141.8068  145.3784  156.1973 C.2     1  UNL1       -0.0142
     13 C         142.5844  144.5465  157.1737 C.3     1  UNL1        0.0931
     14 C         142.1421  144.4600  158.6044 C.2     1  UNL1        0.1744
     15 N         142.7031  143.7253  159.7857 N.2     1  UNL1       -0.0716
     16 C         139.8095  146.9556  155.6751 C.3     1  UNL1        0.4184
     17 F         139.0319  147.7876  154.6987 F       1  UNL1       -0.1659
     18 F         138.9937  147.5161  156.8023 F       1  UNL1       -0.1659
     19 F         140.6253  146.3952  154.5481 F       1  UNL1       -0.1659
     20 C         142.6040  141.8958  166.5291 C.3     1  UNL1        0.0971
     21 C         142.3643  140.4434  166.8179 C.3     1  UNL1        0.1264
     22 C         141.4426  138.0846  163.0982 C.ar    1  UNL1        0.1593
     23 C         140.0767  137.4964  162.9024 C.ar    1  UNL1        0.1357
     24 N         139.0181  137.6945  163.9464 N.ar    1  UNL1       -0.2392
     25 C         139.3253  138.4808  165.1863 C.ar    1  UNL1        0.0975
     26 C         138.2666  138.6789  166.2303 C.ar    1  UNL1        0.0255
     27 C         138.5739  139.4652  167.4702 C.ar    1  UNL1        0.0623
     28 C         139.9398  140.0534  167.6661 C.ar    1  UNL1        0.2611
     29 O         140.2470  140.8397  168.9060 O.2     1  UNL1       -0.2670
     30 N         140.9984  139.8553  166.6221 N.ar    1  UNL1       -0.2926
     31 C         140.6912  139.0690  165.3821 C.ar    1  UNL1        0.0832
     32 C         141.7498  138.8708  164.3381 C.ar    1  UNL1        0.0573
     33 C         143.8422  138.5396  162.2124 C.3     1  UNL1        0.2525
     34 O         142.5012  137.8864  162.0542 O.3     1  UNL1       -0.4698
@<TRIPOS>BOND
     1    33    34    1
     2    34    22    1
     3    22    23   ar
     4    23    24   ar
     5    24    25   ar
     6    25    26   ar
     7    26    27   ar
     8    27    28   ar
     9    28    29    2
    10    28    30   ar
    11    30    21    1
    12    21    20    1
    13    20     1    1
    14     1     2    1
    15     2     3    1
    16     3     4    1
    17     4     7    1
    18     7     8    2
    19     8     9    1
    20     9    10    2
    21    10    11    1
    22    11    16    1
    23    16    17    1
    24    16    18    1
    25    16    19    1
    26    11    12    2
    27    12    13    1
    28    13    14    1
    29    14    15    2
    30     4     5    1
    31     5     6    1
    32    30    31   ar
    33    31    32   ar
    34    32    22   ar
    35    31    25   ar
    36     6     1    1
    37    15     7    1
    38    14     9    1
@<TRIPOS>MOLECULE
*****
 34 38 0 0 0
SMALL
GASTEIGER

@<TRIPOS>ATOM
      1 N         141.2135  141.2689  159.4891 N.3     1  UNL1       -0.2655
      2 C         140.1584  140.2049  159.4207 C.3     1  UNL1        0.1132
      3 C         140.4550  138.8966  158.7496 C.3     1  UNL1        0.1849
      4 N         141.8066  138.6523  158.1469 N.pl3   1  UNL1       -0.1905
      5 C         142.8617  139.7163  158.2153 C.3     1  UNL1        0.1849
      6 C         142.5652  141.0246  158.8863 C.3     1  UNL1        0.1132
      7 C         142.1032  137.3440  157.4758 C.cat   1  UNL1        0.4230
      8 N         143.2086  136.3973  157.8392 N.2     1  UNL1       -0.0678
      9 C         143.1351  135.2209  156.9115 C.2     1  UNL1        0.1887
     10 C         143.9674  133.9781  156.7987 C.2     1  UNL1        0.0433
     11 C         143.6489  132.9549  155.7492 C.2     1  UNL1        0.0706
     12 C         142.4981  133.1744  154.8125 C.2     1  UNL1       -0.0142
     13 C         141.6658  134.4172  154.9252 C.3     1  UNL1        0.0931
     14 C         141.9843  135.4405  155.9748 C.2     1  UNL1        0.1744
     15 N         141.3466  136.7526  156.3235 N.2     1  UNL1       -0.0716
     16 C         144.4811  131.7121  155.6364 C.3     1  UNL1        0.4184
     17 F         145.3134  130.4692  155.5235 F       1  UNL1       -0.1659
     18 F         143.6480  131.2598  154.4738 F       1  UNL1       -0.1659
     19 F         145.3141  132.1644  156.7989 F       1  UNL1       -0.1659
     20 C         140.9169  142.5773  160.1602 C.3     1  UNL1        0.0971
     21 C         140.7585  142.6367  161.6506 C.3     1  UNL1        0.1264
     22 C         144.1630  140.0530  163.0589 C.ar    1  UNL1        0.1593
     23 C         145.2515  140.6427  163.9060 C.ar    1  UNL1        0.1357
     24 N         145.2051  142.0937  164.2835 N.ar    1  UNL1       -0.2392
     25 C         144.0703  142.9549  163.8141 C.ar    1  UNL1        0.0975
     26 C         144.0239  144.4059  164.1917 C.ar    1  UNL1        0.0255
     27 C         142.8891  145.2671  163.7223 C.ar    1  UNL1        0.0623
     28 C         141.8005  144.6774  162.8752 C.ar    1  UNL1        0.2611
     29 O         140.6657  145.5386  162.4058 O.2     1  UNL1       -0.2670
     30 N         141.8469  143.2264  162.4976 N.ar    1  UNL1       -0.2926
     31 C         142.9818  142.3652  162.9671 C.ar    1  UNL1        0.0832
     32 C         143.0282  140.9142  162.5895 C.ar    1  UNL1        0.0573
     33 C         143.4662  138.1177  161.4719 C.3     1  UNL1        0.2525
     34 O         144.2094  138.6020  162.6814 O.3     1  UNL1       -0.4698
@<TRIPOS>BOND
     1    33    34    1
     2    34    22    1
     3    22    23   ar
     4    23    24   ar
     5    24    25   ar
     6    25    26   ar
     7    26    27   ar
     8    27    28   ar
     9    28    29    2
    10    28    30   ar
    11    30    21    1
    12    21    20    1
    13    20     1    1
    14     1     2    1
    15     2     3    1
    16     3     4    1
    17     4     7    1
    18     7     8    2
    19     8     9    1
    20     9    10    2
    21    10    11    1
    22    11    16    1
    23    16    17    1
    24    16    18    1
    25    16    19    1
    26    11    12    2
    27    12    13    1
    28    13    14    1
    29    14    15    2
    30     4     5    1
    31     5     6    1
    32    30    31   ar
    33    31    32   ar
    34    32    22   ar
    35    31    25   ar
    36     6     1    1
    37    15     7    1
    38    14     9    1
@<TRIPOS>MOLECULE
*****
 34 38 0 0 0
SMALL
GASTEIGER

@<TRIPOS>ATOM
      1 N         142.9471  142.5547  164.4630 N.3     1  UNL1       -0.2655
      2 C         142.1605  143.8211  164.2972 C.3     1  UNL1        0.1132
      3 C         141.8722  144.3505  162.9237 C.3     1  UNL1        0.1849
      4 N         142.3704  143.6135  161.7160 N.pl3   1  UNL1       -0.1905
      5 C         143.1569  142.3470  161.8818 C.3     1  UNL1        0.1849
      6 C         143.4453  141.8176  163.2553 C.3     1  UNL1        0.1132
      7 C         142.0820  144.1428  160.3424 C.cat   1  UNL1        0.4230
      8 N         141.0134  145.1332  159.9856 N.2     1  UNL1       -0.0678
      9 C         141.0826  145.3773  158.5072 C.2     1  UNL1        0.1887
     10 C         140.2772  146.2555  157.5961 C.2     1  UNL1        0.0433
     11 C         140.5831  146.2942  156.1282 C.2     1  UNL1        0.0706
     12 C         141.6945  145.4547  155.5713 C.2     1  UNL1       -0.0142
     13 C         142.4999  144.5764  156.4824 C.3     1  UNL1        0.0931
     14 C         142.1940  144.5377  157.9503 C.2     1  UNL1        0.1744
     15 N         142.8116  143.7748  159.0846 N.2     1  UNL1       -0.0716
     16 C         139.7778  147.1724  155.2171 C.3     1  UNL1        0.4184
     17 F         138.9724  148.0506  154.3060 F       1  UNL1       -0.1659
     18 F         140.6897  146.8263  154.0775 F       1  UNL1       -0.1659
     19 F         138.8659  147.5184  156.3567 F       1  UNL1       -0.1659
     20 C         143.2354  142.0253  165.8366 C.3     1  UNL1        0.0971
     21 C         142.2686  141.0880  166.4973 C.3     1  UNL1        0.1264
     22 C         138.3346  141.7769  164.4238 C.ar    1  UNL1        0.1593
     23 C         137.7008  140.6721  163.6317 C.ar    1  UNL1        0.1357
     24 N         138.3783  139.3376  163.5307 N.ar    1  UNL1       -0.2392
     25 C         139.6895  139.1079  164.2218 C.ar    1  UNL1        0.0975
     26 C         140.3670  137.7734  164.1208 C.ar    1  UNL1        0.0255
     27 C         141.6783  137.5438  164.8120 C.ar    1  UNL1        0.0623
     28 C         142.3122  138.6486  165.6042 C.ar    1  UNL1        0.2611
     29 O         143.6235  138.4190  166.2953 O.2     1  UNL1       -0.2670
     30 N         141.6347  139.9831  165.7052 N.ar    1  UNL1       -0.2926
     31 C         140.3234  140.2128  165.0140 C.ar    1  UNL1        0.0832
     32 C         139.6459  141.5472  165.1150 C.ar    1  UNL1        0.0573
     33 C         137.8681  144.1424  163.4560 C.3     1  UNL1        0.2525
     34 O         137.6572  143.1114  164.5248 O.3     1  UNL1       -0.4698
@<TRIPOS>BOND
     1    33    34    1
     2    34    22    1
     3    22    23   ar
     4    23    24   ar
     5    24    25   ar
     6    25    26   ar
     7    26    27   ar
     8    27    28   ar
     9    28    29    2
    10    28    30   ar
    11    30    21    1
    12    21    20    1
    13    20     1    1
    14     1     2    1
    15     2     3    1
    16     3     4    1
    17     4     7    1
    18     7     8    2
    19     8     9    1
    20     9    10    2
    21    10    11    1
    22    11    16    1
    23    16    17    1
    24    16    18    1
    25    16    19    1
    26    11    12    2
    27    12    13    1
    28    13    14    1
    29    14    15    2
    30     4     5    1
    31     5     6    1
    32    30    31   ar
    33    31    32   ar
    34    32    22   ar
    35    31    25   ar
    36     6     1    1
    37    15     7    1
    38    14     9    1
@<TRIPOS>MOLECULE
*****
 34 38 0 0 0
SMALL
GASTEIGER

@<TRIPOS>ATOM
      1 N         140.9231  141.7830  159.3227 N.3     1  UNL1       -0.2655
      2 C         142.1515  141.6147  158.4784 C.3     1  UNL1        0.1132
      3 C         142.4591  140.2838  157.8587 C.3     1  UNL1        0.1849
      4 N         141.5383  139.1212  158.0833 N.pl3   1  UNL1       -0.1905
      5 C         140.3100  139.2895  158.9276 C.3     1  UNL1        0.1849
      6 C         140.0023  140.6203  159.5472 C.3     1  UNL1        0.1132
      7 C         141.8459  137.7902  157.4636 C.cat   1  UNL1        0.4230
      8 N         143.0149  136.9114  157.7971 N.2     1  UNL1       -0.0678
      9 C         142.9301  135.6824  156.9413 C.2     1  UNL1        0.1887
     10 C         143.8072  134.4702  156.8359 C.2     1  UNL1        0.0433
     11 C         143.4628  133.3772  155.8680 C.2     1  UNL1        0.0706
     12 C         142.2414  133.4964  155.0056 C.2     1  UNL1       -0.0142
     13 C         141.3642  134.7087  155.1110 C.3     1  UNL1        0.0931
     14 C         141.7085  135.8017  156.0788 C.2     1  UNL1        0.1744
     15 N         141.0386  137.1043  156.4017 N.2     1  UNL1       -0.0716
     16 C         144.3399  132.1650  155.7626 C.3     1  UNL1        0.4184
     17 F         145.2171  130.9527  155.6572 F       1  UNL1       -0.1659
     18 F         145.0038  132.5329  157.0564 F       1  UNL1       -0.1659
     19 F         143.6760  131.7971  154.4688 F       1  UNL1       -0.1659
     20 C         140.6155  143.1139  159.9423 C.3     1  UNL1        0.0971
     21 C         140.9307  143.3588  161.3883 C.3     1  UNL1        0.1264
     22 C         140.6122  139.6865  163.9695 C.ar    1  UNL1        0.1593
     23 C         139.5277  139.5865  165.0008 C.ar    1  UNL1        0.1357
     24 N         138.5493  140.7106  165.1719 N.ar    1  UNL1       -0.2392
     25 C         138.6555  141.9347  164.3115 C.ar    1  UNL1        0.0975
     26 C         137.6772  143.0588  164.4825 C.ar    1  UNL1        0.0255
     27 C         137.7833  144.2829  163.6221 C.ar    1  UNL1        0.0623
     28 C         138.8679  144.3829  162.5907 C.ar    1  UNL1        0.2611
     29 O         138.9740  145.6070  161.7303 O.2     1  UNL1       -0.2670
     30 N         139.8462  143.2588  162.4197 N.ar    1  UNL1       -0.2926
     31 C         139.7400  142.0347  163.2801 C.ar    1  UNL1        0.0832
     32 C         140.7183  140.9106  163.1091 C.ar    1  UNL1        0.0573
     33 C         141.1106  137.2107  163.3596 C.3     1  UNL1        0.2525
     34 O         141.5905  138.5624  163.7984 O.3     1  UNL1       -0.4698
@<TRIPOS>BOND
     1    33    34    1
     2    34    22    1
     3    22    23   ar
     4    23    24   ar
     5    24    25   ar
     6    25    26   ar
     7    26    27   ar
     8    27    28   ar
     9    28    29    2
    10    28    30   ar
    11    30    21    1
    12    21    20    1
    13    20     1    1
    14     1     2    1
    15     2     3    1
    16     3     4    1
    17     4     7    1
    18     7     8    2
    19     8     9    1
    20     9    10    2
    21    10    11    1
    22    11    16    1
    23    16    17    1
    24    16    18    1
    25    16    19    1
    26    11    12    2
    27    12    13    1
    28    13    14    1
    29    14    15    2
    30     4     5    1
    31     5     6    1
    32    30    31   ar
    33    31    32   ar
    34    32    22   ar
    35    31    25   ar
    36     6     1    1
    37    15     7    1
    38    14     9    1
@<TRIPOS>MOLECULE
*****
 34 38 0 0 0
SMALL
GASTEIGER

@<TRIPOS>ATOM
      1 N         140.7526  140.7269  158.6599 N.3     1  UNL1       -0.2655
      2 C         142.1515  140.4775  158.1794 C.3     1  UNL1        0.1132
      3 C         142.5138  139.1505  157.5815 C.3     1  UNL1        0.1849
      4 N         141.4771  138.0727  157.4640 N.pl3   1  UNL1       -0.1905
      5 C         140.0782  138.3221  157.9445 C.3     1  UNL1        0.1849
      6 C         139.7159  139.6492  158.5424 C.3     1  UNL1        0.1132
      7 C         141.8394  136.7456  156.8661 C.cat   1  UNL1        0.4230
      8 N         142.9830  135.8713  157.2877 N.2     1  UNL1       -0.0678
      9 C         142.9721  134.6451  156.4238 C.2     1  UNL1        0.1887
     10 C         143.8610  133.4375  156.3838 C.2     1  UNL1        0.0433
     11 C         143.5995  132.3464  155.3882 C.2     1  UNL1        0.0706
     12 C         142.4491  132.4629  154.4327 C.2     1  UNL1       -0.0142
     13 C         141.5602  133.6704  154.4727 C.3     1  UNL1        0.0931
     14 C         141.8216  134.7616  155.4683 C.2     1  UNL1        0.1744
     15 N         141.1216  136.0597  155.7417 N.2     1  UNL1       -0.0716
     16 C         144.4884  131.1389  155.3482 C.3     1  UNL1        0.4184
     17 F         145.3773  129.9313  155.3081 F       1  UNL1       -0.1659
     18 F         143.5458  130.4769  154.3872 F       1  UNL1       -0.1659
     19 F         145.4309  131.8008  156.3091 F       1  UNL1       -0.1659
     20 C         140.3903  142.0541  159.2578 C.3     1  UNL1        0.0971
     21 C         140.5635  142.2859  160.7296 C.3     1  UNL1        0.1264
     22 C         141.9339  138.4699  162.6814 C.ar    1  UNL1        0.1593
     23 C         141.0423  137.7666  163.6614 C.ar    1  UNL1        0.1357
     24 N         139.6940  138.3353  163.9909 N.ar    1  UNL1       -0.2392
     25 C         139.2372  139.6073  163.3403 C.ar    1  UNL1        0.0975
     26 C         137.8888  140.1760  163.6698 C.ar    1  UNL1        0.0255
     27 C         137.4321  141.4480  163.0192 C.ar    1  UNL1        0.0623
     28 C         138.3236  142.1514  162.0391 C.ar    1  UNL1        0.2611
     29 O         137.8668  143.4234  161.3885 O.2     1  UNL1       -0.2670
     30 N         139.6719  141.5827  161.7096 N.ar    1  UNL1       -0.2926
     31 C         140.1287  140.3106  162.3603 C.ar    1  UNL1        0.0832
     32 C         141.4771  139.7419  162.0308 C.ar    1  UNL1        0.0573
     33 C         143.8746  138.1160  160.9908 C.3     1  UNL1        0.2525
     34 O         143.2822  137.9011  162.3520 O.3     1  UNL1       -0.4698
@<TRIPOS>BOND
     1    33    34    1
     2    34    22    1
     3    22    23   ar
     4    23    24   ar
     5    24    25   ar
     6    25    26   ar
     7    26    27   ar
     8    27    28   ar
     9    28    29    2
    10    28    30   ar
    11    30    21    1
    12    21    20    1
    13    20     1    1
    14     1     2    1
    15     2     3    1
    16     3     4    1
    17     4     7    1
    18     7     8    2
    19     8     9    1
    20     9    10    2
    21    10    11    1
    22    11    16    1
    23    16    17    1
    24    16    18    1
    25    16    19    1
    26    11    12    2
    27    12    13    1
    28    13    14    1
    29    14    15    2
    30     4     5    1
    31     5     6    1
    32    30    31   ar
    33    31    32   ar
    34    32    22   ar
    35    31    25   ar
    36     6     1    1
    37    15     7    1
    38    14     9    1
@<TRIPOS>MOLECULE
*****
 34 38 0 0 0
SMALL
GASTEIGER

@<TRIPOS>ATOM
      1 N         141.6934  141.2251  159.8648 N.3     1  UNL1       -0.2655
      2 C         142.9279  141.0388  159.0335 C.3     1  UNL1        0.1132
      3 C         143.1495  139.7504  158.2980 C.3     1  UNL1        0.1849
      4 N         142.1365  138.6484  158.3940 N.pl3   1  UNL1       -0.1905
      5 C         140.9019  138.8347  159.2253 C.3     1  UNL1        0.1849
      6 C         140.6804  140.1231  159.9608 C.3     1  UNL1        0.1132
      7 C         142.3580  137.3599  157.6585 C.cat   1  UNL1        0.4230
      8 N         143.3253  136.2800  158.0435 N.2     1  UNL1       -0.0678
      9 C         143.2163  135.1778  157.0319 C.2     1  UNL1        0.1887
     10 C         143.9254  133.8626  156.9002 C.2     1  UNL1        0.0433
     11 C         143.5999  132.9462  155.7581 C.2     1  UNL1        0.0706
     12 C         142.5653  133.3449  154.7479 C.2     1  UNL1       -0.0142
     13 C         141.8561  134.6601  154.8797 C.3     1  UNL1        0.0931
     14 C         142.1816  135.5766  156.0217 C.2     1  UNL1        0.1744
     15 N         141.6512  136.9251  156.4089 N.2     1  UNL1       -0.0716
     16 C         144.3091  131.6310  155.6264 C.3     1  UNL1        0.4184
     17 F         145.0183  130.3158  155.4946 F       1  UNL1       -0.1659
     18 F         145.4233  132.1454  156.4889 F       1  UNL1       -0.1659
     19 F         143.1949  131.1167  154.7639 F       1  UNL1       -0.1659
     20 C         141.4719  142.5136  160.6003 C.3     1  UNL1        0.0971
     21 C         141.6949  142.5792  162.0822 C.3     1  UNL1        0.1264
     22 C         141.0866  138.7897  164.4315 C.ar    1  UNL1        0.1593
     23 C         142.2634  138.0903  165.0446 C.ar    1  UNL1        0.1357
     24 N         143.6430  138.6540  164.8745 N.ar    1  UNL1       -0.2392
     25 C         143.8458  139.9172  164.0914 C.ar    1  UNL1        0.0975
     26 C         145.2254  140.4809  163.9213 C.ar    1  UNL1        0.0255
     27 C         145.4282  141.7440  163.1382 C.ar    1  UNL1        0.0623
     28 C         144.2513  142.4435  162.5251 C.ar    1  UNL1        0.2611
     29 O         144.4541  143.7067  161.7420 O.2     1  UNL1       -0.2670
     30 N         142.8717  141.8798  162.6952 N.ar    1  UNL1       -0.2926
     31 C         142.6690  140.6166  163.4784 C.ar    1  UNL1        0.0832
     32 C         141.2894  140.0529  163.6484 C.ar    1  UNL1        0.0573
     33 C         138.9678  137.6817  163.4154 C.3     1  UNL1        0.2525
     34 O         139.7070  138.2260  164.6016 O.3     1  UNL1       -0.4698
@<TRIPOS>BOND
     1    33    34    1
     2    34    22    1
     3    22    23   ar
     4    23    24   ar
     5    24    25   ar
     6    25    26   ar
     7    26    27   ar
     8    27    28   ar
     9    28    29    2
    10    28    30   ar
    11    30    21    1
    12    21    20    1
    13    20     1    1
    14     1     2    1
    15     2     3    1
    16     3     4    1
    17     4     7    1
    18     7     8    2
    19     8     9    1
    20     9    10    2
    21    10    11    1
    22    11    16    1
    23    16    17    1
    24    16    18    1
    25    16    19    1
    26    11    12    2
    27    12    13    1
    28    13    14    1
    29    14    15    2
    30     4     5    1
    31     5     6    1
    32    30    31   ar
    33    31    32   ar
    34    32    22   ar
    35    31    25   ar
    36     6     1    1
    37    15     7    1
    38    14     9    1
@<TRIPOS>MOLECULE
*****
 34 38 0 0 0
SMALL
GASTEIGER

@<TRIPOS>ATOM
      1 N         142.6282  142.8394  164.8040 N.3     1  UNL1       -0.2655
      2 C         143.5116  142.6472  163.6070 C.3     1  UNL1        0.1132
      3 C         143.0134  143.0140  162.2406 C.3     1  UNL1        0.1849
      4 N         141.6318  143.5729  162.0711 N.pl3   1  UNL1       -0.1905
      5 C         140.7484  143.7651  163.2680 C.3     1  UNL1        0.1849
      6 C         141.2466  143.3984  164.6345 C.3     1  UNL1        0.1132
      7 C         141.1335  143.9396  160.7045 C.cat   1  UNL1        0.4230
      8 N         141.3786  145.2389  159.9961 N.2     1  UNL1       -0.0678
      9 C         140.6992  145.1738  158.6603 C.2     1  UNL1        0.1887
     10 C         140.6002  146.1612  157.5355 C.2     1  UNL1        0.0433
     11 C         139.8362  145.8091  156.2936 C.2     1  UNL1        0.0706
     12 C         139.1713  144.4696  156.1765 C.2     1  UNL1       -0.0142
     13 C         139.2704  143.4822  157.3013 C.3     1  UNL1        0.0931
     14 C         140.0343  143.8343  158.5433 C.2     1  UNL1        0.1744
     15 N         140.3027  143.0716  159.8067 N.2     1  UNL1       -0.0716
     16 C         139.7372  146.7964  155.1687 C.3     1  UNL1        0.4184
     17 F         139.6381  147.7838  154.0438 F       1  UNL1       -0.1659
     18 F         138.8800  147.6831  156.0226 F       1  UNL1       -0.1659
     19 F         140.5943  145.9097  154.3149 F       1  UNL1       -0.1659
     20 C         143.1265  142.4727  166.1705 C.3     1  UNL1        0.0971
     21 C         142.9656  141.0696  166.6758 C.3     1  UNL1        0.1264
     22 C         139.0082  139.2437  165.5555 C.ar    1  UNL1        0.1593
     23 C         137.9941  138.9410  166.6185 C.ar    1  UNL1        0.1357
     24 N         138.2991  139.2470  168.0549 N.ar    1  UNL1       -0.2392
     25 C         139.6182  139.8557  168.4284 C.ar    1  UNL1        0.0975
     26 C         139.9232  140.1617  169.8648 C.ar    1  UNL1        0.0255
     27 C         141.2423  140.7703  170.2383 C.ar    1  UNL1        0.0623
     28 C         142.2565  141.0730  169.1753 C.ar    1  UNL1        0.2611
     29 O         143.5756  141.6816  169.5487 O.2     1  UNL1       -0.2670
     30 N         141.9515  140.7670  167.7388 N.ar    1  UNL1       -0.2926
     31 C         140.6323  140.1583  167.3654 C.ar    1  UNL1        0.0832
     32 C         140.3273  139.8523  165.9290 C.ar    1  UNL1        0.0573
     33 C         139.1492  137.6377  163.5181 C.3     1  UNL1        0.2525
     34 O         138.7032  138.9377  164.1191 O.3     1  UNL1       -0.4698
@<TRIPOS>BOND
     1    33    34    1
     2    34    22    1
     3    22    23   ar
     4    23    24   ar
     5    24    25   ar
     6    25    26   ar
     7    26    27   ar
     8    27    28   ar
     9    28    29    2
    10    28    30   ar
    11    30    21    1
    12    21    20    1
    13    20     1    1
    14     1     2    1
    15     2     3    1
    16     3     4    1
    17     4     7    1
    18     7     8    2
    19     8     9    1
    20     9    10    2
    21    10    11    1
    22    11    16    1
    23    16    17    1
    24    16    18    1
    25    16    19    1
    26    11    12    2
    27    12    13    1
    28    13    14    1
    29    14    15    2
    30     4     5    1
    31     5     6    1
    32    30    31   ar
    33    31    32   ar
    34    32    22   ar
    35    31    25   ar
    36     6     1    1
    37    15     7    1
    38    14     9    1
@<TRIPOS>MOLECULE
*****
 34 38 0 0 0
SMALL
GASTEIGER

@<TRIPOS>ATOM
      1 N         140.0380  142.6455  164.4947 N.3     1  UNL1       -0.2655
      2 C         138.8219  142.3806  163.6575 C.3     1  UNL1        0.1132
      3 C         138.7852  142.8268  162.2259 C.3     1  UNL1        0.1849
      4 N         139.9646  143.5379  161.6315 N.pl3   1  UNL1       -0.1905
      5 C         141.1807  143.8028  162.4688 C.3     1  UNL1        0.1849
      6 C         141.2174  143.3566  163.9003 C.3     1  UNL1        0.1132
      7 C         139.9280  143.9842  160.1999 C.cat   1  UNL1        0.4230
      8 N         140.0356  145.3994  159.7145 N.2     1  UNL1       -0.0678
      9 C         139.9514  145.3835  158.2169 C.2     1  UNL1        0.1887
     10 C         139.9995  146.4825  157.1972 C.2     1  UNL1        0.0433
     11 C         139.8879  146.1565  155.7373 C.2     1  UNL1        0.0706
     12 C         139.7283  144.7314  155.2972 C.2     1  UNL1       -0.0142
     13 C         139.6802  143.6324  156.3169 C.3     1  UNL1        0.0931
     14 C         139.7918  143.9584  157.7768 C.2     1  UNL1        0.1744
     15 N         139.7773  143.0936  159.0023 N.2     1  UNL1       -0.0716
     16 C         139.9360  147.2554  154.7176 C.3     1  UNL1        0.4184
     17 F         139.9840  148.3545  153.6978 F       1  UNL1       -0.1659
     18 F         138.6771  147.8392  155.2874 F       1  UNL1       -0.1659
     19 F         141.1948  146.6717  154.1478 F       1  UNL1       -0.1659
     20 C         140.0747  142.1992  165.9264 C.3     1  UNL1        0.0971
     21 C         140.5947  140.8358  166.2739 C.3     1  UNL1        0.1264
     22 C         144.0359  139.7823  163.5723 C.ar    1  UNL1        0.1593
     23 C         143.9014  138.6558  162.5911 C.ar    1  UNL1        0.1357
     24 N         142.6199  137.8804  162.5104 N.ar    1  UNL1       -0.2392
     25 C         141.4728  138.2316  163.4109 C.ar    1  UNL1        0.0975
     26 C         140.1913  137.4562  163.3302 C.ar    1  UNL1        0.0255
     27 C         139.0443  137.8074  164.2307 C.ar    1  UNL1        0.0623
     28 C         139.1787  138.9339  165.2120 C.ar    1  UNL1        0.2611
     29 O         138.0317  139.2851  166.1125 O.2     1  UNL1       -0.2670
     30 N         140.4602  139.7093  165.2927 N.ar    1  UNL1       -0.2926
     31 C         141.6073  139.3581  164.3921 C.ar    1  UNL1        0.0832
     32 C         142.8888  140.1335  164.4728 C.ar    1  UNL1        0.0573
     33 C         145.2920  142.0127  164.0165 C.3     1  UNL1        0.2525
     34 O         145.3174  140.5577  163.6530 O.3     1  UNL1       -0.4698
@<TRIPOS>BOND
     1    33    34    1
     2    34    22    1
     3    22    23   ar
     4    23    24   ar
     5    24    25   ar
     6    25    26   ar
     7    26    27   ar
     8    27    28   ar
     9    28    29    2
    10    28    30   ar
    11    30    21    1
    12    21    20    1
    13    20     1    1
    14     1     2    1
    15     2     3    1
    16     3     4    1
    17     4     7    1
    18     7     8    2
    19     8     9    1
    20     9    10    2
    21    10    11    1
    22    11    16    1
    23    16    17    1
    24    16    18    1
    25    16    19    1
    26    11    12    2
    27    12    13    1
    28    13    14    1
    29    14    15    2
    30     4     5    1
    31     5     6    1
    32    30    31   ar
    33    31    32   ar
    34    32    22   ar
    35    31    25   ar
    36     6     1    1
    37    15     7    1
    38    14     9    1
@<TRIPOS>MOLECULE
*****
 34 38 0 0 0
SMALL
GASTEIGER

@<TRIPOS>ATOM
      1 N         142.7967  138.2034  161.0340 N.3     1  UNL1       -0.2655
      2 C         143.8977  139.0564  161.5908 C.3     1  UNL1        0.1132
      3 C         143.7072  139.7684  162.8972 C.3     1  UNL1        0.1849
      4 N         142.4157  139.6272  163.6468 N.pl3   1  UNL1       -0.1905
      5 C         141.3147  138.7741  163.0900 C.3     1  UNL1        0.1849
      6 C         141.5052  138.0622  161.7836 C.3     1  UNL1        0.1132
      7 C         142.2251  140.3392  164.9533 C.cat   1  UNL1        0.4230
      8 N         140.9126  140.6053  165.6291 N.2     1  UNL1       -0.0678
      9 C         141.1898  141.3406  166.9068 C.2     1  UNL1        0.1887
     10 C         140.2828  141.8629  167.9813 C.2     1  UNL1        0.0433
     11 C         140.8596  142.5737  169.1696 C.2     1  UNL1        0.0706
     12 C         142.3434  142.7620  169.2835 C.2     1  UNL1       -0.0142
     13 C         143.2504  142.2396  168.2090 C.3     1  UNL1        0.0931
     14 C         142.6736  141.5289  167.0207 C.2     1  UNL1        0.1744
     15 N         143.3134  140.9100  165.8133 N.2     1  UNL1       -0.0716
     16 C         139.9527  143.0960  170.2441 C.3     1  UNL1        0.4184
     17 F         139.0457  143.6185  171.3187 F       1  UNL1       -0.1659
     18 F         140.4540  144.4870  169.9909 F       1  UNL1       -0.1659
     19 F         139.4515  141.7051  170.4973 F       1  UNL1       -0.1659
     20 C         142.9874  137.4914  159.7275 C.3     1  UNL1        0.0971
     21 C         142.8829  138.2501  158.4377 C.3     1  UNL1        0.1264
     22 C         139.4725  141.1237  159.0389 C.ar    1  UNL1        0.1593
     23 C         138.2360  141.0066  158.1979 C.ar    1  UNL1        0.1357
     24 N         138.1363  139.9316  157.1564 N.ar    1  UNL1       -0.2392
     25 C         139.2731  138.9738  156.9561 C.ar    1  UNL1        0.0975
     26 C         139.1734  137.8988  155.9146 C.ar    1  UNL1        0.0255
     27 C         140.3102  136.9410  155.7143 C.ar    1  UNL1        0.0623
     28 C         141.5467  137.0580  156.5553 C.ar    1  UNL1        0.2611
     29 O         142.6835  136.1002  156.3549 O.2     1  UNL1       -0.2670
     30 N         141.6464  138.1330  157.5967 N.ar    1  UNL1       -0.2926
     31 C         140.5096  139.0909  157.7971 C.ar    1  UNL1        0.0832
     32 C         140.6093  140.1658  158.8385 C.ar    1  UNL1        0.0573
     33 C         138.3507  142.6210  160.8415 C.3     1  UNL1        0.2525
     34 O         139.5722  142.1987  160.0803 O.3     1  UNL1       -0.4698
@<TRIPOS>BOND
     1    33    34    1
     2    34    22    1
     3    22    23   ar
     4    23    24   ar
     5    24    25   ar
     6    25    26   ar
     7    26    27   ar
     8    27    28   ar
     9    28    29    2
    10    28    30   ar
    11    30    21    1
    12    21    20    1
    13    20     1    1
    14     1     2    1
    15     2     3    1
    16     3     4    1
    17     4     7    1
    18     7     8    2
    19     8     9    1
    20     9    10    2
    21    10    11    1
    22    11    16    1
    23    16    17    1
    24    16    18    1
    25    16    19    1
    26    11    12    2
    27    12    13    1
    28    13    14    1
    29    14    15    2
    30     4     5    1
    31     5     6    1
    32    30    31   ar
    33    31    32   ar
    34    32    22   ar
    35    31    25   ar
    36     6     1    1
    37    15     7    1
    38    14     9    1
