@<TRIPOS>MOLECULE
*****
 35 39 0 0 0
SMALL
GASTEIGER

@<TRIPOS>ATOM
      1 C         138.7637  139.6614  159.0807 C.2     1  UNL1        0.3047
      2 O         137.7992  140.7164  158.6259 O.2     1  UNL1       -0.2647
      3 N         138.7147  139.1591  160.4932 N.am    1  UNL1       -0.2647
      4 C         139.4876  138.1477  161.2866 C.3     1  UNL1        0.1391
      5 C         138.6455  138.4488  162.4909 C.3     1  UNL1        0.2052
      6 C         137.8726  139.4603  161.6974 C.3     1  UNL1        0.1391
      7 C         141.1021  137.5625  156.8021 C.ar    1  UNL1        0.2501
      8 N         141.5712  138.9539  156.4956 N.ar    1  UNL1       -0.1068
      9 N         140.7523  139.9096  157.3118 N.ar    1  UNL1       -0.1021
     10 C         139.7771  139.1088  158.1228 C.ar    1  UNL1        0.3043
     11 O         139.9933  137.6582  157.8078 O.2     1  UNL1       -0.4122
     12 C         142.7346  133.7675  155.0180 C.ar    1  UNL1        0.1387
     13 C         143.4763  134.4552  156.1256 C.ar    1  UNL1        0.0371
     14 C         142.9321  135.7202  156.7204 C.ar    1  UNL1        0.0078
     15 C         141.6463  136.2975  156.2074 C.ar    1  UNL1        0.0553
     16 C         140.9046  135.6099  155.0997 C.ar    1  UNL1        0.0078
     17 C         141.4488  134.3449  154.5050 C.ar    1  UNL1        0.0371
     18 C         143.0966  131.1977  155.1403 C.3     1  UNL1        0.2525
     19 O         143.2788  132.5026  154.4233 O.3     1  UNL1       -0.4714
     20 O         138.5965  137.9466  163.9034 O.3     1  UNL1       -0.4756
     21 C         139.5056  138.5359  164.9409 C.ar    1  UNL1        0.1385
     22 C         138.9384  139.3828  166.0413 C.ar    1  UNL1        0.0366
     23 C         139.8474  139.9721  167.0787 C.ar    1  UNL1        0.0002
     24 C         141.3238  139.7145  167.0157 C.ar    1  UNL1       -0.0059
     25 C         141.8911  138.8676  165.9154 C.ar    1  UNL1        0.0002
     26 C         140.9820  138.2783  164.8778 C.ar    1  UNL1        0.0366
     27 C         142.2329  140.3038  168.0532 C.3     1  UNL1        0.0992
     28 N         142.6232  141.7499  167.9740 N.3     1  UNL1       -0.2676
     29 C         143.1847  142.3066  166.6992 C.3     1  UNL1        0.0899
     30 C         142.4522  142.6395  169.1696 C.3     1  UNL1        0.0772
     31 C         141.1722  142.6077  169.9511 C.3     1  UNL1        0.0694
     32 C         140.4400  143.1834  168.7753 C.3     1  UNL1        0.0064
     33 C         141.9044  142.0320  171.1268 C.3     1  UNL1        0.1458
     34 O         140.6245  142.0002  171.9084 O.3     1  UNL1       -0.3535
     35 C         139.8922  142.5759  170.7326 C.3     1  UNL1        0.1458
@<TRIPOS>BOND
     1    18    19    1
     2    19    12    1
     3    12    13   ar
     4    13    14   ar
     5    14    15   ar
     6    15     7    1
     7     7     8   ar
     8     8     9   ar
     9     9    10   ar
    10    10     1    1
    11     1     2    2
    12     1     3   am
    13     3     4    1
    14     4     5    1
    15     5    20    1
    16    20    21    1
    17    21    22   ar
    18    22    23   ar
    19    23    24   ar
    20    24    27    1
    21    27    28    1
    22    28    29    1
    23    28    30    1
    24    30    31    1
    25    31    32    1
    26    31    33    1
    27    33    34    1
    28    34    35    1
    29    24    25   ar
    30    25    26   ar
    31     5     6    1
    32    10    11   ar
    33    15    16   ar
    34    16    17   ar
    35    17    12   ar
    36    11     7   ar
    37     6     3    1
    38    26    21   ar
    39    35    31    1
@<TRIPOS>MOLECULE
*****
 35 39 0 0 0
SMALL
GASTEIGER

@<TRIPOS>ATOM
      1 C         141.9544  139.6701  158.0948 C.2     1  UNL1        0.3047
      2 O         142.5107  141.0327  157.8052 O.2     1  UNL1       -0.2647
      3 N         140.8140  139.5145  159.0567 N.am    1  UNL1       -0.2647
      4 C         140.0190  138.3554  159.5806 C.3     1  UNL1        0.1391
      5 C         139.2011  139.2945  160.4170 C.3     1  UNL1        0.2052
      6 C         139.9962  140.4535  159.8931 C.3     1  UNL1        0.1391
      7 C         142.9131  136.1745  156.7066 C.ar    1  UNL1        0.2501
      8 N         143.9620  137.0370  156.0696 N.ar    1  UNL1       -0.1068
      9 N         143.7306  138.4515  156.5121 N.ar    1  UNL1       -0.1021
     10 C         142.5386  138.4631  157.4226 C.ar    1  UNL1        0.3043
     11 O         142.0334  137.0559  157.5428 O.2     1  UNL1       -0.4122
     12 C         142.4812  131.7242  156.1984 C.ar    1  UNL1        0.1387
     13 C         141.6527  132.6579  155.3668 C.ar    1  UNL1        0.0371
     14 C         141.7967  134.1414  155.5362 C.ar    1  UNL1        0.0078
     15 C         142.7691  134.6911  156.5372 C.ar    1  UNL1        0.0553
     16 C         143.5976  133.7573  157.3689 C.ar    1  UNL1        0.0078
     17 C         143.4537  132.2739  157.1994 C.ar    1  UNL1        0.0371
     18 C         143.5410  129.4009  155.7199 C.3     1  UNL1        0.2525
     19 O         142.3373  130.2408  156.0290 O.3     1  UNL1       -0.4714
     20 O         138.0607  139.1389  161.3788 O.3     1  UNL1       -0.4756
     21 C         138.3078  139.2274  162.8557 C.ar    1  UNL1        0.1385
     22 C         138.0948  140.5261  163.5753 C.ar    1  UNL1        0.0366
     23 C         138.3419  140.6146  165.0521 C.ar    1  UNL1        0.0002
     24 C         138.8020  139.4044  165.8095 C.ar    1  UNL1       -0.0059
     25 C         139.0150  138.1056  165.0899 C.ar    1  UNL1        0.0002
     26 C         138.7680  138.0171  163.6130 C.ar    1  UNL1        0.0366
     27 C         139.0491  139.4929  167.2863 C.3     1  UNL1        0.0992
     28 N         140.2053  140.2944  167.8065 N.3     1  UNL1       -0.2676
     29 C         141.6111  139.8556  167.5210 C.3     1  UNL1        0.0899
     30 C         139.9559  141.5349  168.6122 C.3     1  UNL1        0.0772
     31 C         140.6160  141.7068  169.9482 C.3     1  UNL1        0.0694
     32 C         141.3578  142.9022  169.4278 C.3     1  UNL1        0.0064
     33 C         139.8743  140.5114  170.4686 C.3     1  UNL1        0.1458
     34 O         140.5344  140.6833  171.8045 O.3     1  UNL1       -0.3535
     35 C         141.2762  141.8787  171.2841 C.3     1  UNL1        0.1458
@<TRIPOS>BOND
     1    18    19    1
     2    19    12    1
     3    12    13   ar
     4    13    14   ar
     5    14    15   ar
     6    15     7    1
     7     7     8   ar
     8     8     9   ar
     9     9    10   ar
    10    10     1    1
    11     1     2    2
    12     1     3   am
    13     3     4    1
    14     4     5    1
    15     5    20    1
    16    20    21    1
    17    21    22   ar
    18    22    23   ar
    19    23    24   ar
    20    24    27    1
    21    27    28    1
    22    28    29    1
    23    28    30    1
    24    30    31    1
    25    31    32    1
    26    31    33    1
    27    33    34    1
    28    34    35    1
    29    24    25   ar
    30    25    26   ar
    31     5     6    1
    32    10    11   ar
    33    15    16   ar
    34    16    17   ar
    35    17    12   ar
    36    11     7   ar
    37     6     3    1
    38    26    21   ar
    39    35    31    1
@<TRIPOS>MOLECULE
*****
 35 39 0 0 0
SMALL
GASTEIGER

@<TRIPOS>ATOM
      1 C         142.7643  139.5291  158.9481 C.2     1  UNL1        0.3047
      2 O         143.7788  140.6177  159.1372 O.2     1  UNL1       -0.2647
      3 N         141.4903  139.5454  159.7397 N.am    1  UNL1       -0.2647
      4 C         140.2813  138.6615  159.8218 C.3     1  UNL1        0.1391
      5 C         139.6886  139.5685  160.8592 C.3     1  UNL1        0.2052
      6 C         140.8977  140.4524  160.7771 C.3     1  UNL1        0.1391
      7 C         143.0937  136.2351  156.9216 C.ar    1  UNL1        0.2501
      8 N         143.7526  137.2130  155.9944 N.ar    1  UNL1       -0.1068
      9 N         143.7094  138.5659  156.6407 N.ar    1  UNL1       -0.1021
     10 C         143.0238  138.4243  157.9673 C.ar    1  UNL1        0.3043
     11 O         142.6433  136.9838  158.1409 O.2     1  UNL1       -0.4122
     12 C         142.5617  131.8293  156.1763 C.ar    1  UNL1        0.1387
     13 C         141.7282  132.8233  155.4232 C.ar    1  UNL1        0.0371
     14 C         141.9056  134.2920  155.6717 C.ar    1  UNL1        0.0078
     15 C         142.9163  134.7665  156.6732 C.ar    1  UNL1        0.0553
     16 C         143.7498  133.7724  157.4263 C.ar    1  UNL1        0.0078
     17 C         143.5725  132.3038  157.1778 C.ar    1  UNL1        0.0371
     18 C         142.9897  129.3622  156.8695 C.3     1  UNL1        0.2525
     19 O         142.3843  130.3607  155.9278 O.3     1  UNL1       -0.4714
     20 O         138.4147  139.5848  161.6508 O.3     1  UNL1       -0.4756
     21 C         138.4589  139.4669  163.1456 C.ar    1  UNL1        0.1385
     22 C         138.1631  140.6627  164.0014 C.ar    1  UNL1        0.0366
     23 C         138.2074  140.5448  165.4960 C.ar    1  UNL1        0.0002
     24 C         138.5474  139.2310  166.1350 C.ar    1  UNL1       -0.0059
     25 C         138.8432  138.0351  165.2792 C.ar    1  UNL1        0.0002
     26 C         138.7989  138.1530  163.7845 C.ar    1  UNL1        0.0366
     27 C         138.5916  139.1130  167.6297 C.3     1  UNL1        0.0992
     28 N         139.5718  139.9304  168.4178 N.3     1  UNL1       -0.2676
     29 C         139.1365  140.6094  169.6826 C.3     1  UNL1        0.0899
     30 C         140.9873  140.0689  167.9412 C.3     1  UNL1        0.0772
     31 C         142.0477  140.5714  168.8757 C.3     1  UNL1        0.0694
     32 C         141.8650  141.9592  168.3367 C.3     1  UNL1        0.0064
     33 C         142.2302  139.1835  169.4147 C.3     1  UNL1        0.1458
     34 O         143.2905  139.6859  170.3493 O.3     1  UNL1       -0.3535
     35 C         143.1079  141.0738  169.8103 C.3     1  UNL1        0.1458
@<TRIPOS>BOND
     1    18    19    1
     2    19    12    1
     3    12    13   ar
     4    13    14   ar
     5    14    15   ar
     6    15     7    1
     7     7     8   ar
     8     8     9   ar
     9     9    10   ar
    10    10     1    1
    11     1     2    2
    12     1     3   am
    13     3     4    1
    14     4     5    1
    15     5    20    1
    16    20    21    1
    17    21    22   ar
    18    22    23   ar
    19    23    24   ar
    20    24    27    1
    21    27    28    1
    22    28    29    1
    23    28    30    1
    24    30    31    1
    25    31    32    1
    26    31    33    1
    27    33    34    1
    28    34    35    1
    29    24    25   ar
    30    25    26   ar
    31     5     6    1
    32    10    11   ar
    33    15    16   ar
    34    16    17   ar
    35    17    12   ar
    36    11     7   ar
    37     6     3    1
    38    26    21   ar
    39    35    31    1
@<TRIPOS>MOLECULE
*****
 35 39 0 0 0
SMALL
GASTEIGER

@<TRIPOS>ATOM
      1 C         142.4145  138.5573  157.6062 C.2     1  UNL1        0.3047
      2 O         142.2299  139.8180  156.8147 O.2     1  UNL1       -0.2647
      3 N         142.7773  138.6307  159.0598 N.am    1  UNL1       -0.2647
      4 C         143.0364  137.6233  160.1405 C.3     1  UNL1        0.1391
      5 C         143.2903  138.7345  161.1156 C.3     1  UNL1        0.2052
      6 C         143.0312  139.7419  160.0348 C.3     1  UNL1        0.1391
      7 C         142.6274  134.9490  156.1917 C.ar    1  UNL1        0.2501
      8 N         141.2969  135.3913  155.6587 N.ar    1  UNL1       -0.1068
      9 N         141.0552  136.7967  156.1237 N.ar    1  UNL1       -0.1021
     10 C         142.2363  137.2232  156.9441 C.ar    1  UNL1        0.3043
     11 O         143.2080  136.0812  156.9861 O.2     1  UNL1       -0.4122
     12 C         144.5413  130.9313  155.5247 C.ar    1  UNL1        0.1387
     13 C         144.9246  131.7558  156.7176 C.ar    1  UNL1        0.0371
     14 C         144.2866  133.0951  156.9399 C.ar    1  UNL1        0.0078
     15 C         143.2654  133.6098  155.9694 C.ar    1  UNL1        0.0553
     16 C         142.8821  132.7852  154.7764 C.ar    1  UNL1        0.0078
     17 C         143.5200  131.4460  154.5541 C.ar    1  UNL1        0.0371
     18 C         144.3933  128.3375  155.5440 C.3     1  UNL1        0.2525
     19 O         145.1792  129.5920  155.3023 O.3     1  UNL1       -0.4714
     20 O         143.6531  138.8079  162.5691 O.3     1  UNL1       -0.4756
     21 C         142.6259  139.2286  163.5782 C.ar    1  UNL1        0.1385
     22 C         142.2685  138.3129  164.7111 C.ar    1  UNL1        0.0366
     23 C         141.2414  138.7335  165.7201 C.ar    1  UNL1        0.0002
     24 C         140.5717  140.0700  165.5961 C.ar    1  UNL1       -0.0059
     25 C         140.9291  140.9857  164.4632 C.ar    1  UNL1        0.0002
     26 C         141.9563  140.5650  163.4541 C.ar    1  UNL1        0.0366
     27 C         139.5446  140.4906  166.6051 C.3     1  UNL1        0.0992
     28 N         139.9775  141.0702  167.9191 N.3     1  UNL1       -0.2676
     29 C         139.6177  140.3768  169.1997 C.3     1  UNL1        0.0899
     30 C         140.7703  142.3432  167.9526 C.3     1  UNL1        0.0772
     31 C         141.9254  142.4826  168.8994 C.3     1  UNL1        0.0694
     32 C         142.7409  141.5626  168.0400 C.3     1  UNL1        0.0064
     33 C         141.1100  143.4026  169.7588 C.3     1  UNL1        0.1458
     34 O         142.2650  143.5421  170.7056 O.3     1  UNL1       -0.3535
     35 C         143.0805  142.6220  169.8461 C.3     1  UNL1        0.1458
@<TRIPOS>BOND
     1    18    19    1
     2    19    12    1
     3    12    13   ar
     4    13    14   ar
     5    14    15   ar
     6    15     7    1
     7     7     8   ar
     8     8     9   ar
     9     9    10   ar
    10    10     1    1
    11     1     2    2
    12     1     3   am
    13     3     4    1
    14     4     5    1
    15     5    20    1
    16    20    21    1
    17    21    22   ar
    18    22    23   ar
    19    23    24   ar
    20    24    27    1
    21    27    28    1
    22    28    29    1
    23    28    30    1
    24    30    31    1
    25    31    32    1
    26    31    33    1
    27    33    34    1
    28    34    35    1
    29    24    25   ar
    30    25    26   ar
    31     5     6    1
    32    10    11   ar
    33    15    16   ar
    34    16    17   ar
    35    17    12   ar
    36    11     7   ar
    37     6     3    1
    38    26    21   ar
    39    35    31    1
@<TRIPOS>MOLECULE
*****
 35 39 0 0 0
SMALL
GASTEIGER

@<TRIPOS>ATOM
      1 C         143.3830  141.1199  158.4345 C.2     1  UNL1        0.3047
      2 O         143.5741  142.3172  157.5514 O.2     1  UNL1       -0.2647
      3 N         143.9406  141.1184  159.8271 N.am    1  UNL1       -0.2647
      4 C         143.9512  140.1404  160.9642 C.3     1  UNL1        0.1391
      5 C         144.7290  141.1164  161.7964 C.3     1  UNL1        0.2052
      6 C         144.7184  142.0944  160.6592 C.3     1  UNL1        0.1391
      7 C         142.1172  137.6840  157.1469 C.ar    1  UNL1        0.2501
      8 N         140.8481  138.4834  157.1352 N.ar    1  UNL1       -0.1068
      9 N         141.1677  139.8678  157.6161 N.ar    1  UNL1       -0.1021
     10 C         142.6345  139.9240  157.9250 C.ar    1  UNL1        0.3043
     11 O         143.2213  138.5743  157.6351 O.2     1  UNL1       -0.4122
     12 C         142.5385  133.3718  155.9312 C.ar    1  UNL1        0.1387
     13 C         143.3914  133.9272  157.0330 C.ar    1  UNL1        0.0371
     14 C         143.2510  135.3646  157.4382 C.ar    1  UNL1        0.0078
     15 C         142.2576  136.2466  156.7417 C.ar    1  UNL1        0.0553
     16 C         141.4047  135.6912  155.6399 C.ar    1  UNL1        0.0078
     17 C         141.5451  134.2538  155.2347 C.ar    1  UNL1        0.0371
     18 C         143.4089  131.5786  154.2649 C.3     1  UNL1        0.2525
     19 O         142.6789  131.9345  155.5260 O.3     1  UNL1       -0.4714
     20 O         145.2865  141.1149  163.1889 O.3     1  UNL1       -0.4756
     21 C         144.4003  140.7775  164.3512 C.ar    1  UNL1        0.1385
     22 C         144.1056  139.3436  164.6782 C.ar    1  UNL1        0.0366
     23 C         143.2195  139.0062  165.8405 C.ar    1  UNL1        0.0002
     24 C         142.6280  140.1028  166.6758 C.ar    1  UNL1       -0.0059
     25 C         142.9227  141.5367  166.3487 C.ar    1  UNL1        0.0002
     26 C         143.8089  141.8741  165.1864 C.ar    1  UNL1        0.0366
     27 C         141.7418  139.7654  167.8380 C.3     1  UNL1        0.0992
     28 N         140.3517  140.3245  167.9084 N.3     1  UNL1       -0.2676
     29 C         139.4357  140.2079  166.7262 C.3     1  UNL1        0.0899
     30 C         139.8775  141.0002  169.1608 C.3     1  UNL1        0.0772
     31 C         140.7314  142.0427  169.8199 C.3     1  UNL1        0.0694
     32 C         140.5416  142.9458  168.6373 C.3     1  UNL1        0.0064
     33 C         140.9211  141.1397  171.0024 C.3     1  UNL1        0.1458
     34 O         141.7749  142.1821  171.6615 O.3     1  UNL1       -0.3535
     35 C         141.5852  143.0852  170.4789 C.3     1  UNL1        0.1458
@<TRIPOS>BOND
     1    18    19    1
     2    19    12    1
     3    12    13   ar
     4    13    14   ar
     5    14    15   ar
     6    15     7    1
     7     7     8   ar
     8     8     9   ar
     9     9    10   ar
    10    10     1    1
    11     1     2    2
    12     1     3   am
    13     3     4    1
    14     4     5    1
    15     5    20    1
    16    20    21    1
    17    21    22   ar
    18    22    23   ar
    19    23    24   ar
    20    24    27    1
    21    27    28    1
    22    28    29    1
    23    28    30    1
    24    30    31    1
    25    31    32    1
    26    31    33    1
    27    33    34    1
    28    34    35    1
    29    24    25   ar
    30    25    26   ar
    31     5     6    1
    32    10    11   ar
    33    15    16   ar
    34    16    17   ar
    35    17    12   ar
    36    11     7   ar
    37     6     3    1
    38    26    21   ar
    39    35    31    1
@<TRIPOS>MOLECULE
*****
 35 39 0 0 0
SMALL
GASTEIGER

@<TRIPOS>ATOM
      1 C         143.0645  141.2495  156.4392 C.2     1  UNL1        0.3047
      2 O         142.2833  141.9910  155.3952 O.2     1  UNL1       -0.2647
      3 N         143.3581  141.8995  157.7588 N.am    1  UNL1       -0.2647
      4 C         144.0837  141.4883  159.0054 C.3     1  UNL1        0.1391
      5 C         143.7734  142.8187  159.6249 C.3     1  UNL1        0.2052
      6 C         143.0478  143.2299  158.3782 C.3     1  UNL1        0.1391
      7 C         143.6048  137.4550  155.8266 C.ar    1  UNL1        0.2501
      8 N         144.9996  137.9783  155.6521 N.ar    1  UNL1       -0.1068
      9 N         144.9671  139.4634  155.8603 N.ar    1  UNL1       -0.1021
     10 C         143.5520  139.8580  156.1635 C.ar    1  UNL1        0.3043
     11 O         142.7101  138.6167  156.1427 O.2     1  UNL1       -0.4122
     12 C         142.3283  133.1550  155.4653 C.ar    1  UNL1        0.1387
     13 C         142.1708  134.0846  154.2987 C.ar    1  UNL1        0.0371
     14 C         142.5963  135.5180  154.4192 C.ar    1  UNL1        0.0078
     15 C         143.1793  136.0217  155.7061 C.ar    1  UNL1        0.0553
     16 C         143.3368  135.0920  156.8727 C.ar    1  UNL1        0.0078
     17 C         142.9113  133.6587  156.7523 C.ar    1  UNL1        0.0371
     18 C         142.6154  130.6594  156.1282 C.3     1  UNL1        0.2525
     19 O         141.9028  131.7217  155.3449 O.3     1  UNL1       -0.4714
     20 O         144.0671  143.4687  160.9444 O.3     1  UNL1       -0.4756
     21 C         143.1234  143.2873  162.0963 C.ar    1  UNL1        0.1385
     22 C         142.7328  141.9075  162.5359 C.ar    1  UNL1        0.0366
     23 C         141.7892  141.7262  163.6877 C.ar    1  UNL1        0.0002
     24 C         141.2361  142.9249  164.4000 C.ar    1  UNL1       -0.0059
     25 C         141.6267  144.3047  163.9604 C.ar    1  UNL1        0.0002
     26 C         142.5704  144.4861  162.8086 C.ar    1  UNL1        0.0366
     27 C         140.2925  142.7436  165.5518 C.3     1  UNL1        0.0992
     28 N         139.1365  141.7953  165.4322 N.3     1  UNL1       -0.2676
     29 C         139.2056  140.4432  166.0780 C.3     1  UNL1        0.0899
     30 C         137.9113  142.1991  164.6667 C.3     1  UNL1        0.0772
     31 C         138.0273  142.6126  163.2294 C.3     1  UNL1        0.0694
     32 C         138.2286  141.1799  162.8335 C.3     1  UNL1        0.0064
     33 C         137.8261  144.0453  163.6254 C.3     1  UNL1        0.1458
     34 O         137.9421  144.4589  162.1882 O.3     1  UNL1       -0.3535
     35 C         138.1433  143.0261  161.7922 C.3     1  UNL1        0.1458
@<TRIPOS>BOND
     1    18    19    1
     2    19    12    1
     3    12    13   ar
     4    13    14   ar
     5    14    15   ar
     6    15     7    1
     7     7     8   ar
     8     8     9   ar
     9     9    10   ar
    10    10     1    1
    11     1     2    2
    12     1     3   am
    13     3     4    1
    14     4     5    1
    15     5    20    1
    16    20    21    1
    17    21    22   ar
    18    22    23   ar
    19    23    24   ar
    20    24    27    1
    21    27    28    1
    22    28    29    1
    23    28    30    1
    24    30    31    1
    25    31    32    1
    26    31    33    1
    27    33    34    1
    28    34    35    1
    29    24    25   ar
    30    25    26   ar
    31     5     6    1
    32    10    11   ar
    33    15    16   ar
    34    16    17   ar
    35    17    12   ar
    36    11     7   ar
    37     6     3    1
    38    26    21   ar
    39    35    31    1
@<TRIPOS>MOLECULE
*****
 35 39 0 0 0
SMALL
GASTEIGER

@<TRIPOS>ATOM
      1 C         140.6718  144.3608  157.7957 C.2     1  UNL1        0.3047
      2 O         141.3434  143.1361  157.2489 O.2     1  UNL1       -0.2647
      3 N         140.7353  144.6585  159.2645 N.am    1  UNL1       -0.2647
      4 C         140.2059  145.7475  160.1498 C.3     1  UNL1        0.1391
      5 C         140.8252  145.0796  161.3416 C.3     1  UNL1        0.2052
      6 C         141.3546  143.9906  160.4562 C.3     1  UNL1        0.1391
      7 C         139.2476  147.2802  155.6710 C.ar    1  UNL1        0.2501
      8 N         138.3631  146.1486  155.2384 N.ar    1  UNL1       -0.1068
      9 N         138.7890  144.9172  155.9817 N.ar    1  UNL1       -0.1021
     10 C         139.9366  145.2878  156.8736 C.ar    1  UNL1        0.3043
     11 O         140.2201  146.7482  156.6815 O.2     1  UNL1       -0.4122
     12 C         139.0230  151.5256  154.1958 C.ar    1  UNL1        0.1387
     13 C         138.4555  151.1667  155.5371 C.ar    1  UNL1        0.0371
     14 C         138.5303  149.7515  156.0288 C.ar    1  UNL1        0.0078
     15 C         139.1727  148.6953  155.1792 C.ar    1  UNL1        0.0553
     16 C         139.7403  149.0543  153.8380 C.ar    1  UNL1        0.0078
     17 C         139.6654  150.4694  153.3463 C.ar    1  UNL1        0.0371
     18 C         140.2059  153.7344  153.5089 C.3     1  UNL1        0.2525
     19 O         138.9482  152.9408  153.7041 O.3     1  UNL1       -0.4714
     20 O         140.8888  145.3773  162.8103 O.3     1  UNL1       -0.4756
     21 C         140.6193  144.2902  163.8083 C.ar    1  UNL1        0.1385
     22 C         141.7324  143.7681  164.6675 C.ar    1  UNL1        0.0366
     23 C         141.4629  142.6811  165.6654 C.ar    1  UNL1        0.0002
     24 C         140.0803  142.1162  165.8041 C.ar    1  UNL1       -0.0059
     25 C         138.9672  142.6384  164.9449 C.ar    1  UNL1        0.0002
     26 C         139.2366  143.7255  163.9470 C.ar    1  UNL1        0.0366
     27 C         139.8108  141.0293  166.8020 C.3     1  UNL1        0.0992
     28 N         140.9508  140.3763  167.5259 N.3     1  UNL1       -0.2676
     29 C         141.9565  139.5647  166.7642 C.3     1  UNL1        0.0899
     30 C         141.0852  140.5348  169.0114 C.3     1  UNL1        0.0772
     31 C         140.5110  141.7421  169.6919 C.3     1  UNL1        0.0694
     32 C         139.2563  140.9766  169.9912 C.3     1  UNL1        0.0064
     33 C         141.7657  142.5075  169.3925 C.3     1  UNL1        0.1458
     34 O         141.1916  143.7148  170.0729 O.3     1  UNL1       -0.3535
     35 C         139.9368  142.9493  170.3723 C.3     1  UNL1        0.1458
@<TRIPOS>BOND
     1    18    19    1
     2    19    12    1
     3    12    13   ar
     4    13    14   ar
     5    14    15   ar
     6    15     7    1
     7     7     8   ar
     8     8     9   ar
     9     9    10   ar
    10    10     1    1
    11     1     2    2
    12     1     3   am
    13     3     4    1
    14     4     5    1
    15     5    20    1
    16    20    21    1
    17    21    22   ar
    18    22    23   ar
    19    23    24   ar
    20    24    27    1
    21    27    28    1
    22    28    29    1
    23    28    30    1
    24    30    31    1
    25    31    32    1
    26    31    33    1
    27    33    34    1
    28    34    35    1
    29    24    25   ar
    30    25    26   ar
    31     5     6    1
    32    10    11   ar
    33    15    16   ar
    34    16    17   ar
    35    17    12   ar
    36    11     7   ar
    37     6     3    1
    38    26    21   ar
    39    35    31    1
@<TRIPOS>MOLECULE
*****
 35 39 0 0 0
SMALL
GASTEIGER

@<TRIPOS>ATOM
      1 C         142.8958  138.2092  156.8024 C.2     1  UNL1        0.3047
      2 O         144.0823  139.1223  156.8943 O.2     1  UNL1       -0.2647
      3 N         141.5626  138.6569  157.3242 N.am    1  UNL1       -0.2647
      4 C         140.1955  138.0451  157.4050 C.3     1  UNL1        0.1391
      5 C         139.6773  139.2900  158.0621 C.3     1  UNL1        0.2052
      6 C         141.0444  139.9018  157.9812 C.3     1  UNL1        0.1391
      7 C         143.4612  134.4737  155.9125 C.ar    1  UNL1        0.2501
      8 N         143.0755  135.0349  154.5760 N.ar    1  UNL1       -0.1068
      9 N         142.8168  136.5026  154.7466 N.ar    1  UNL1       -0.1021
     10 C         143.0425  136.8484  156.1886 C.ar    1  UNL1        0.3043
     11 O         143.4408  135.5945  156.9092 O.2     1  UNL1       -0.4122
     12 C         144.4974  130.1814  156.7798 C.ar    1  UNL1        0.1387
     13 C         143.8125  130.5428  155.4952 C.ar    1  UNL1        0.0371
     14 C         143.4670  131.9735  155.2061 C.ar    1  UNL1        0.0078
     15 C         143.8066  133.0429  156.2016 C.ar    1  UNL1        0.0553
     16 C         144.4916  132.6816  157.4862 C.ar    1  UNL1        0.0078
     17 C         144.8370  131.2508  157.7753 C.ar    1  UNL1        0.0371
     18 C         143.7998  127.8238  157.6193 C.3     1  UNL1        0.2525
     19 O         144.8428  128.7506  157.0689 O.3     1  UNL1       -0.4714
     20 O         138.3441  139.7377  158.5838 O.3     1  UNL1       -0.4756
     21 C         138.2124  140.2038  160.0035 C.ar    1  UNL1        0.1385
     22 C         137.8855  139.2210  161.0884 C.ar    1  UNL1        0.0366
     23 C         137.7538  139.6872  162.5080 C.ar    1  UNL1        0.0002
     24 C         137.9491  141.1363  162.8427 C.ar    1  UNL1       -0.0059
     25 C         138.2760  142.1191  161.7579 C.ar    1  UNL1        0.0002
     26 C         138.4077  141.6529  160.3381 C.ar    1  UNL1        0.0366
     27 C         137.8174  141.6024  164.2623 C.3     1  UNL1        0.0992
     28 N         139.0321  141.6933  165.1376 N.3     1  UNL1       -0.2676
     29 C         139.9573  142.8679  165.0171 C.3     1  UNL1        0.0899
     30 C         139.3218  140.6095  166.1334 C.3     1  UNL1        0.0772
     31 C         139.2370  139.1698  165.7209 C.3     1  UNL1        0.0694
     32 C         137.9551  139.0260  166.4865 C.3     1  UNL1        0.0064
     33 C         140.5189  139.3136  164.9555 C.3     1  UNL1        0.1458
     34 O         140.4342  137.8740  164.5430 O.3     1  UNL1       -0.3535
     35 C         139.1523  137.7301  165.3085 C.3     1  UNL1        0.1458
@<TRIPOS>BOND
     1    18    19    1
     2    19    12    1
     3    12    13   ar
     4    13    14   ar
     5    14    15   ar
     6    15     7    1
     7     7     8   ar
     8     8     9   ar
     9     9    10   ar
    10    10     1    1
    11     1     2    2
    12     1     3   am
    13     3     4    1
    14     4     5    1
    15     5    20    1
    16    20    21    1
    17    21    22   ar
    18    22    23   ar
    19    23    24   ar
    20    24    27    1
    21    27    28    1
    22    28    29    1
    23    28    30    1
    24    30    31    1
    25    31    32    1
    26    31    33    1
    27    33    34    1
    28    34    35    1
    29    24    25   ar
    30    25    26   ar
    31     5     6    1
    32    10    11   ar
    33    15    16   ar
    34    16    17   ar
    35    17    12   ar
    36    11     7   ar
    37     6     3    1
    38    26    21   ar
    39    35    31    1
@<TRIPOS>MOLECULE
*****
 35 39 0 0 0
SMALL
GASTEIGER

@<TRIPOS>ATOM
      1 C         139.9923  139.4188  157.7503 C.2     1  UNL1        0.3047
      2 O         139.5202  140.4714  156.7916 O.2     1  UNL1       -0.2647
      3 N         139.3167  139.2579  159.0798 N.am    1  UNL1       -0.2647
      4 C         139.5003  138.3503  160.2599 C.3     1  UNL1        0.1391
      5 C         138.3612  139.0304  160.9601 C.3     1  UNL1        0.2052
      6 C         138.1777  139.9379  159.7800 C.3     1  UNL1        0.1391
      7 C         142.4241  136.6082  156.6313 C.ar    1  UNL1        0.2501
      8 N         143.3881  137.7013  156.9861 N.ar    1  UNL1       -0.1068
      9 N         142.5945  138.8872  157.4484 N.ar    1  UNL1       -0.1021
     10 C         141.1400  138.5270  157.3794 C.ar    1  UNL1        0.3043
     11 O         141.0348  137.1185  156.8744 O.2     1  UNL1       -0.4122
     12 C         143.5098  132.5163  155.1055 C.ar    1  UNL1        0.1387
     13 C         144.0522  132.9951  156.4194 C.ar    1  UNL1        0.0371
     14 C         143.6904  134.3591  156.9280 C.ar    1  UNL1        0.0078
     15 C         142.7860  135.2442  156.1227 C.ar    1  UNL1        0.0553
     16 C         142.2436  134.7654  154.8087 C.ar    1  UNL1        0.0078
     17 C         142.6054  133.4015  154.3001 C.ar    1  UNL1        0.0371
     18 C         144.7821  130.2701  155.3986 C.3     1  UNL1        0.2525
     19 O         143.8717  131.1524  154.5969 O.3     1  UNL1       -0.4714
     20 O         137.6856  138.8695  162.2895 O.3     1  UNL1       -0.4756
     21 C         138.3618  139.3539  163.5379 C.ar    1  UNL1        0.1385
     22 C         139.1646  138.4017  164.3738 C.ar    1  UNL1        0.0366
     23 C         139.8407  138.8860  165.6221 C.ar    1  UNL1        0.0002
     24 C         139.7140  140.3226  166.0345 C.ar    1  UNL1       -0.0059
     25 C         138.9112  141.2748  165.1986 C.ar    1  UNL1        0.0002
     26 C         138.2351  140.7905  163.9503 C.ar    1  UNL1        0.0366
     27 C         140.3901  140.8070  167.2828 C.3     1  UNL1        0.0992
     28 N         141.8735  140.6509  167.4411 N.3     1  UNL1       -0.2676
     29 C         142.4234  139.5948  168.3535 C.3     1  UNL1        0.0899
     30 C         142.8071  141.5508  166.6871 C.3     1  UNL1        0.0772
     31 C         142.8192  141.5316  165.1872 C.3     1  UNL1        0.0694
     32 C         143.3762  140.1390  165.2095 C.3     1  UNL1        0.0064
     33 C         142.2622  142.9241  165.1649 C.3     1  UNL1        0.1458
     34 O         142.2743  142.9050  163.6651 O.3     1  UNL1       -0.3535
     35 C         142.8313  141.5123  163.6873 C.3     1  UNL1        0.1458
@<TRIPOS>BOND
     1    18    19    1
     2    19    12    1
     3    12    13   ar
     4    13    14   ar
     5    14    15   ar
     6    15     7    1
     7     7     8   ar
     8     8     9   ar
     9     9    10   ar
    10    10     1    1
    11     1     2    2
    12     1     3   am
    13     3     4    1
    14     4     5    1
    15     5    20    1
    16    20    21    1
    17    21    22   ar
    18    22    23   ar
    19    23    24   ar
    20    24    27    1
    21    27    28    1
    22    28    29    1
    23    28    30    1
    24    30    31    1
    25    31    32    1
    26    31    33    1
    27    33    34    1
    28    34    35    1
    29    24    25   ar
    30    25    26   ar
    31     5     6    1
    32    10    11   ar
    33    15    16   ar
    34    16    17   ar
    35    17    12   ar
    36    11     7   ar
    37     6     3    1
    38    26    21   ar
    39    35    31    1
