@<TRIPOS>MOLECULE
*****
 32 36 0 0 0
SMALL
GASTEIGER

@<TRIPOS>ATOM
      1 C         139.6685  138.1701  160.9153 C.3     1  UNL1        0.0770
      2 N         139.5446  138.5075  162.3715 N.3     1  UNL1       -0.2724
      3 C         140.3642  137.7658  163.3856 C.3     1  UNL1        0.0725
      4 C         140.2404  138.1032  164.8419 C.3     1  UNL1        0.0234
      5 C         139.2969  139.1822  165.2842 C.3     1  UNL1        0.0464
      6 C         138.4773  139.9238  164.2702 C.3     1  UNL1        0.0234
      7 C         138.6011  139.5864  162.8138 C.3     1  UNL1        0.0725
      8 C         139.1730  139.5196  166.7404 C.ar    1  UNL1        0.1003
      9 N         138.2094  138.9017  167.7098 N.ar    1  UNL1       -0.0814
     10 O         138.4319  139.5344  169.0516 O.2     1  UNL1       -0.3536
     11 C         139.5330  140.5434  168.9115 C.ar    1  UNL1        0.1787
     12 C         140.1778  141.4692  169.8999 C.ar    1  UNL1        0.0698
     13 C         141.2805  142.3859  169.4601 C.ar    1  UNL1        0.1433
     14 F         141.9252  143.3118  170.4486 F       1  UNL1       -0.2041
     15 C         141.7386  142.3768  168.0317 C.ar    1  UNL1        0.0299
     16 C         141.0938  141.4510  167.0433 C.ar    1  UNL1        0.0067
     17 C         139.9910  140.5342  167.4831 C.ar    1  UNL1        0.0540
     18 C         140.6997  138.8584  160.0710 C.3     1  UNL1        0.0497
     19 C         143.3816  137.7507  160.8327 C.3     1  UNL1        0.0520
     20 C         143.0642  139.1933  161.0942 C.ar    1  UNL1        0.0614
     21 N         144.0878  140.0820  161.7365 N.ar    1  UNL1       -0.2343
     22 C         143.7704  141.5246  161.9979 C.ar    1  UNL1        0.1491
     23 N         142.4294  142.0784  161.6171 N.ar    1  UNL1       -0.2824
     24 C         141.4058  141.1897  160.9748 C.ar    1  UNL1        0.2589
     25 O         140.0648  141.7435  160.5939 O.2     1  UNL1       -0.2672
     26 C         141.7232  139.7472  160.7134 C.ar    1  UNL1        0.0489
     27 C         142.1120  143.5209  161.8785 C.3     1  UNL1        0.1103
     28 C         143.1355  144.4096  162.5208 C.3     1  UNL1        0.0276
     29 C         144.4765  143.8557  162.9016 C.3     1  UNL1        0.0390
     30 C         144.7939  142.4132  162.6402 C.3     1  UNL1        0.1668
     31 O         146.1349  141.8594  163.0211 O.3     1  UNL1       -0.3770
     32 H         146.1996  141.8048  163.9874 H       1  UNL1        0.2109
@<TRIPOS>BOND
     1    19    20    1
     2    20    21   ar
     3    21    22   ar
     4    22    23   ar
     5    23    24   ar
     6    24    25    2
     7    24    26   ar
     8    26    18    1
     9    18     1    1
    10     1     2    1
    11     2     3    1
    12     3     4    1
    13     4     5    1
    14     5     8    1
    15     8     9   ar
    16     9    10   ar
    17    10    11   ar
    18    11    12   ar
    19    12    13   ar
    20    13    14    1
    21    13    15   ar
    22    15    16   ar
    23    16    17   ar
    24     5     6    1
    25     6     7    1
    26    23    27    1
    27    27    28    1
    28    28    29    1
    29    29    30    1
    30    30    31    1
    31    26    20   ar
    32     7     2    1
    33    30    22    1
    34    17     8   ar
    35    17    11   ar
    36    31    32    1
@<TRIPOS>MOLECULE
*****
 32 36 0 0 0
SMALL
GASTEIGER

@<TRIPOS>ATOM
      1 C         138.6564  138.3827  161.2163 C.3     1  UNL1        0.0770
      2 N         138.6807  138.6683  162.6886 N.3     1  UNL1       -0.2724
      3 C         138.1692  139.9798  163.2068 C.3     1  UNL1        0.0725
      4 C         138.1935  140.2654  164.6791 C.3     1  UNL1        0.0234
      5 C         138.7293  139.2395  165.6334 C.3     1  UNL1        0.0464
      6 C         139.2408  137.9281  165.1153 C.3     1  UNL1        0.0234
      7 C         139.2165  137.6424  163.6429 C.3     1  UNL1        0.0725
      8 C         138.7536  139.5251  167.1057 C.ar    1  UNL1        0.1003
      9 N         137.8224  138.9493  168.1310 N.ar    1  UNL1       -0.0814
     10 O         138.2067  139.5050  169.4703 O.2     1  UNL1       -0.3536
     11 C         139.3755  140.4242  169.2727 C.ar    1  UNL1        0.1787
     12 C         140.1756  141.2516  170.2346 C.ar    1  UNL1        0.0698
     13 C         141.3137  142.0913  169.7352 C.ar    1  UNL1        0.1433
     14 F         142.1138  142.9186  170.6971 F       1  UNL1       -0.2041
     15 C         141.6518  142.1037  168.2738 C.ar    1  UNL1        0.0299
     16 C         140.8516  141.2764  167.3119 C.ar    1  UNL1        0.0067
     17 C         139.7135  140.4367  167.8113 C.ar    1  UNL1        0.0540
     18 C         139.8567  138.6934  160.3722 C.3     1  UNL1        0.0497
     19 C         139.5942  141.5996  159.6757 C.3     1  UNL1        0.0520
     20 C         140.7495  141.1295  160.5091 C.ar    1  UNL1        0.0614
     21 N         141.7734  142.1124  160.9942 N.ar    1  UNL1       -0.2343
     22 C         142.9286  141.6423  161.8276 C.ar    1  UNL1        0.1491
     23 N         143.0598  140.1892  162.1759 N.ar    1  UNL1       -0.2824
     24 C         142.0358  139.2062  161.6907 C.ar    1  UNL1        0.2589
     25 O         142.1671  137.7531  162.0390 O.2     1  UNL1       -0.2672
     26 C         140.8807  139.6764  160.8574 C.ar    1  UNL1        0.0489
     27 C         144.2150  139.7190  163.0093 C.3     1  UNL1        0.1103
     28 C         145.2389  140.7020  163.4944 C.3     1  UNL1        0.0276
     29 C         145.1076  142.1551  163.1461 C.3     1  UNL1        0.0390
     30 C         143.9525  142.6252  162.3128 C.3     1  UNL1        0.1668
     31 O         143.8213  144.0783  161.9645 O.3     1  UNL1       -0.3770
     32 H         144.5120  144.3221  161.3286 H       1  UNL1        0.2109
@<TRIPOS>BOND
     1    19    20    1
     2    20    21   ar
     3    21    22   ar
     4    22    23   ar
     5    23    24   ar
     6    24    25    2
     7    24    26   ar
     8    26    18    1
     9    18     1    1
    10     1     2    1
    11     2     3    1
    12     3     4    1
    13     4     5    1
    14     5     8    1
    15     8     9   ar
    16     9    10   ar
    17    10    11   ar
    18    11    12   ar
    19    12    13   ar
    20    13    14    1
    21    13    15   ar
    22    15    16   ar
    23    16    17   ar
    24     5     6    1
    25     6     7    1
    26    23    27    1
    27    27    28    1
    28    28    29    1
    29    29    30    1
    30    30    31    1
    31    26    20   ar
    32     7     2    1
    33    30    22    1
    34    17     8   ar
    35    17    11   ar
    36    31    32    1
@<TRIPOS>MOLECULE
*****
 32 36 0 0 0
SMALL
GASTEIGER

@<TRIPOS>ATOM
      1 C         139.3385  138.0076  162.6160 C.3     1  UNL1        0.0770
      2 N         139.4552  138.5344  164.0155 N.3     1  UNL1       -0.2724
      3 C         138.2257  138.9609  164.7614 C.3     1  UNL1        0.0725
      4 C         138.3424  139.4877  166.1610 C.3     1  UNL1        0.0234
      5 C         139.6887  139.5879  166.8148 C.3     1  UNL1        0.0464
      6 C         140.9183  139.1614  166.0689 C.3     1  UNL1        0.0234
      7 C         140.8015  138.6346  164.6693 C.3     1  UNL1        0.0725
      8 C         139.8055  140.1147  168.2143 C.ar    1  UNL1        0.1003
      9 N         138.8675  139.8220  169.3477 N.ar    1  UNL1       -0.0814
     10 O         139.3631  140.5531  170.5602 O.2     1  UNL1       -0.3536
     11 C         140.6074  141.2976  170.1761 C.ar    1  UNL1        0.1787
     12 C         141.5269  142.1872  170.9592 C.ar    1  UNL1        0.0698
     13 C         142.7196  142.8058  170.2926 C.ar    1  UNL1        0.1433
     14 F         143.6390  143.6954  171.0757 F       1  UNL1       -0.2041
     15 C         142.9931  142.5349  168.8428 C.ar    1  UNL1        0.0299
     16 C         142.0737  141.6453  168.0597 C.ar    1  UNL1        0.0067
     17 C         140.8809  141.0266  168.7264 C.ar    1  UNL1        0.0540
     18 C         139.2416  138.9605  161.4616 C.3     1  UNL1        0.0497
     19 C         142.1537  139.5145  161.0006 C.3     1  UNL1        0.0520
     20 C         141.2258  140.6350  161.3659 C.ar    1  UNL1        0.0614
     21 N         141.7540  142.0325  161.5006 N.ar    1  UNL1       -0.2343
     22 C         140.8260  143.1530  161.8659 C.ar    1  UNL1        0.1491
     23 N         139.3699  142.8761  162.0964 N.ar    1  UNL1       -0.2824
     24 C         138.8418  141.4785  161.9617 C.ar    1  UNL1        0.2589
     25 O         137.3857  141.2016  162.1922 O.2     1  UNL1       -0.2672
     26 C         139.7697  140.3581  161.5964 C.ar    1  UNL1        0.0489
     27 C         138.4420  143.9965  162.4617 C.3     1  UNL1        0.1103
     28 C         138.9702  145.3939  162.5965 C.3     1  UNL1        0.0276
     29 C         140.4262  145.6709  162.3659 C.3     1  UNL1        0.0390
     30 C         141.3542  144.5505  162.0007 C.3     1  UNL1        0.1668
     31 O         142.8102  144.8274  161.7701 O.3     1  UNL1       -0.3770
     32 H         143.2363  145.0417  162.6148 H       1  UNL1        0.2109
@<TRIPOS>BOND
     1    19    20    1
     2    20    21   ar
     3    21    22   ar
     4    22    23   ar
     5    23    24   ar
     6    24    25    2
     7    24    26   ar
     8    26    18    1
     9    18     1    1
    10     1     2    1
    11     2     3    1
    12     3     4    1
    13     4     5    1
    14     5     8    1
    15     8     9   ar
    16     9    10   ar
    17    10    11   ar
    18    11    12   ar
    19    12    13   ar
    20    13    14    1
    21    13    15   ar
    22    15    16   ar
    23    16    17   ar
    24     5     6    1
    25     6     7    1
    26    23    27    1
    27    27    28    1
    28    28    29    1
    29    29    30    1
    30    30    31    1
    31    26    20   ar
    32     7     2    1
    33    30    22    1
    34    17     8   ar
    35    17    11   ar
    36    31    32    1
@<TRIPOS>MOLECULE
*****
 32 36 0 0 0
SMALL
GASTEIGER

@<TRIPOS>ATOM
      1 C         139.4287  138.4670  162.1366 C.3     1  UNL1        0.0770
      2 N         139.4708  138.8516  163.5858 N.3     1  UNL1       -0.2724
      3 C         138.2710  139.4806  164.2300 C.3     1  UNL1        0.0725
      4 C         138.3130  139.8652  165.6792 C.3     1  UNL1        0.0234
      5 C         139.5548  139.6208  166.4843 C.3     1  UNL1        0.0464
      6 C         140.7546  138.9918  165.8402 C.3     1  UNL1        0.0234
      7 C         140.7126  138.6072  164.3909 C.3     1  UNL1        0.0725
      8 C         139.5969  140.0053  167.9335 C.ar    1  UNL1        0.1003
      9 N         138.6362  139.5543  168.9936 N.ar    1  UNL1       -0.0814
     10 O         139.0526  140.1787  170.2925 O.2     1  UNL1       -0.3536
     11 C         140.2706  141.0156  170.0350 C.ar    1  UNL1        0.1787
     12 C         141.1168  141.8614  170.9397 C.ar    1  UNL1        0.0698
     13 C         142.2993  142.6000  170.3867 C.ar    1  UNL1        0.1433
     14 F         143.1456  143.4458  171.2914 F       1  UNL1       -0.2041
     15 C         142.6358  142.4929  168.9287 C.ar    1  UNL1        0.0299
     16 C         141.7895  141.6471  168.0240 C.ar    1  UNL1        0.0067
     17 C         140.6069  140.9085  168.5772 C.ar    1  UNL1        0.0540
     18 C         139.8329  139.4580  161.0856 C.3     1  UNL1        0.0497
     19 C         138.0361  141.8428  161.3763 C.3     1  UNL1        0.0520
     20 C         139.5081  141.9771  161.6322 C.ar    1  UNL1        0.0614
     21 N         140.0816  143.3038  162.0334 N.ar    1  UNL1       -0.2343
     22 C         141.5535  143.4382  162.2892 C.ar    1  UNL1        0.1491
     23 N         142.4519  142.2458  162.1438 N.ar    1  UNL1       -0.2824
     24 C         141.8784  140.9191  161.7426 C.ar    1  UNL1        0.2589
     25 O         142.7768  139.7267  161.5973 O.2     1  UNL1       -0.2672
     26 C         140.4065  140.7848  161.4868 C.ar    1  UNL1        0.0489
     27 C         143.9238  142.3802  162.3996 C.3     1  UNL1        0.1103
     28 C         144.4973  143.7068  162.8008 C.3     1  UNL1        0.0276
     29 C         143.5989  144.8992  162.9462 C.3     1  UNL1        0.0390
     30 C         142.1270  144.7649  162.6904 C.3     1  UNL1        0.1668
     31 O         141.2286  145.9573  162.8357 O.3     1  UNL1       -0.3770
     32 H         141.4011  146.5820  162.1140 H       1  UNL1        0.2109
@<TRIPOS>BOND
     1    19    20    1
     2    20    21   ar
     3    21    22   ar
     4    22    23   ar
     5    23    24   ar
     6    24    25    2
     7    24    26   ar
     8    26    18    1
     9    18     1    1
    10     1     2    1
    11     2     3    1
    12     3     4    1
    13     4     5    1
    14     5     8    1
    15     8     9   ar
    16     9    10   ar
    17    10    11   ar
    18    11    12   ar
    19    12    13   ar
    20    13    14    1
    21    13    15   ar
    22    15    16   ar
    23    16    17   ar
    24     5     6    1
    25     6     7    1
    26    23    27    1
    27    27    28    1
    28    28    29    1
    29    29    30    1
    30    30    31    1
    31    26    20   ar
    32     7     2    1
    33    30    22    1
    34    17     8   ar
    35    17    11   ar
    36    31    32    1
@<TRIPOS>MOLECULE
*****
 32 36 0 0 0
SMALL
GASTEIGER

@<TRIPOS>ATOM
      1 C         143.8197  139.5316  161.5436 C.3     1  UNL1        0.0770
      2 N         143.5564  139.5200  163.0202 N.3     1  UNL1       -0.2724
      3 C         143.9941  140.6766  163.8692 C.3     1  UNL1        0.0725
      4 C         143.7308  140.6650  165.3458 C.3     1  UNL1        0.0234
      5 C         143.0297  139.4969  165.9735 C.3     1  UNL1        0.0464
      6 C         142.5920  138.3403  165.1246 C.3     1  UNL1        0.0234
      7 C         142.8553  138.3519  163.6479 C.3     1  UNL1        0.0725
      8 C         142.7664  139.4853  167.4502 C.ar    1  UNL1        0.1003
      9 N         143.2743  138.4679  168.4284 N.ar    1  UNL1       -0.0814
     10 O         142.7707  138.8429  169.7907 O.2     1  UNL1       -0.3536
     11 C         141.9516  140.0921  169.6544 C.ar    1  UNL1        0.1787
     12 C         141.2078  140.9194  170.6605 C.ar    1  UNL1        0.0698
     13 C         140.4613  142.1436  170.2202 C.ar    1  UNL1        0.1433
     14 F         139.7175  142.9709  171.2264 F       1  UNL1       -0.2041
     15 C         140.4586  142.5407  168.7737 C.ar    1  UNL1        0.0299
     16 C         141.2024  141.7134  167.7676 C.ar    1  UNL1        0.0067
     17 C         141.9489  140.4891  168.2079 C.ar    1  UNL1        0.0540
     18 C         142.7700  140.0366  160.5985 C.3     1  UNL1        0.0497
     19 C         140.3724  138.2863  161.0317 C.3     1  UNL1        0.0520
     20 C         140.2999  139.7501  161.3513 C.ar    1  UNL1        0.0614
     21 N         139.0287  140.3387  161.8874 N.ar    1  UNL1       -0.2343
     22 C         138.9562  141.8025  162.2070 C.ar    1  UNL1        0.1491
     23 N         140.1550  142.6777  161.9904 N.ar    1  UNL1       -0.2824
     24 C         141.4263  142.0890  161.4542 C.ar    1  UNL1        0.2589
     25 O         142.6251  142.9642  161.2376 O.2     1  UNL1       -0.2672
     26 C         141.4987  140.6253  161.1347 C.ar    1  UNL1        0.0489
     27 C         140.0826  144.1414  162.3099 C.3     1  UNL1        0.1103
     28 C         138.8114  144.7300  162.8461 C.3     1  UNL1        0.0276
     29 C         137.6125  143.8548  163.0626 C.3     1  UNL1        0.0390
     30 C         137.6850  142.3911  162.7431 C.3     1  UNL1        0.1668
     31 O         136.4862  141.5159  162.9597 O.3     1  UNL1       -0.3770
     32 H         135.8061  141.7305  162.3021 H       1  UNL1        0.2109
@<TRIPOS>BOND
     1    19    20    1
     2    20    21   ar
     3    21    22   ar
     4    22    23   ar
     5    23    24   ar
     6    24    25    2
     7    24    26   ar
     8    26    18    1
     9    18     1    1
    10     1     2    1
    11     2     3    1
    12     3     4    1
    13     4     5    1
    14     5     8    1
    15     8     9   ar
    16     9    10   ar
    17    10    11   ar
    18    11    12   ar
    19    12    13   ar
    20    13    14    1
    21    13    15   ar
    22    15    16   ar
    23    16    17   ar
    24     5     6    1
    25     6     7    1
    26    23    27    1
    27    27    28    1
    28    28    29    1
    29    29    30    1
    30    30    31    1
    31    26    20   ar
    32     7     2    1
    33    30    22    1
    34    17     8   ar
    35    17    11   ar
    36    31    32    1
@<TRIPOS>MOLECULE
*****
 32 36 0 0 0
SMALL
GASTEIGER

@<TRIPOS>ATOM
      1 C         143.7271  139.0030  161.1963 C.3     1  UNL1        0.0770
      2 N         143.4915  139.0812  162.6756 N.3     1  UNL1       -0.2724
      3 C         144.4202  139.8796  163.5419 C.3     1  UNL1        0.0725
      4 C         144.1846  139.9577  165.0212 C.3     1  UNL1        0.0234
      5 C         143.0204  139.2375  165.6343 C.3     1  UNL1        0.0464
      6 C         142.0918  138.4391  164.7682 C.3     1  UNL1        0.0234
      7 C         142.3273  138.3610  163.2888 C.3     1  UNL1        0.0725
      8 C         142.7849  139.3156  167.1136 C.ar    1  UNL1        0.1003
      9 N         143.3568  138.3915  168.1475 N.ar    1  UNL1       -0.0814
     10 O         142.8614  138.8364  169.4917 O.2     1  UNL1       -0.3536
     11 C         141.9832  140.0354  169.2885 C.ar    1  UNL1        0.1787
     12 C         141.2206  140.8958  170.2519 C.ar    1  UNL1        0.0698
     13 C         140.4106  142.0522  169.7456 C.ar    1  UNL1        0.1433
     14 F         139.6480  142.9126  170.7090 F       1  UNL1       -0.2041
     15 C         140.3633  142.3485  168.2759 C.ar    1  UNL1        0.0299
     16 C         141.1260  141.4881  167.3125 C.ar    1  UNL1        0.0067
     17 C         141.9359  140.3316  167.8188 C.ar    1  UNL1        0.0540
     18 C         143.0781  139.9976  160.2800 C.3     1  UNL1        0.0497
     19 C         144.6045  142.5179  160.8442 C.3     1  UNL1        0.0520
     20 C         143.1337  142.4516  161.1314 C.ar    1  UNL1        0.0614
     21 N         142.4261  143.6455  161.7006 N.ar    1  UNL1       -0.2343
     22 C         140.9553  143.5793  161.9877 C.ar    1  UNL1        0.1491
     23 N         140.1921  142.3191  161.7056 N.ar    1  UNL1       -0.2824
     24 C         140.8997  141.1252  161.1364 C.ar    1  UNL1        0.2589
     25 O         140.1365  139.8651  160.8543 O.2     1  UNL1       -0.2672
     26 C         142.3705  141.1915  160.8493 C.ar    1  UNL1        0.0489
     27 C         138.7214  142.2528  161.9928 C.3     1  UNL1        0.1103
     28 C         138.0138  143.4467  162.5620 C.3     1  UNL1        0.0276
     29 C         138.7770  144.7068  162.8441 C.3     1  UNL1        0.0390
     30 C         140.2478  144.7731  162.5569 C.3     1  UNL1        0.1668
     31 O         141.0110  146.0333  162.8390 O.3     1  UNL1       -0.3770
     32 H         141.0884  146.1566  163.7980 H       1  UNL1        0.2109
@<TRIPOS>BOND
     1    19    20    1
     2    20    21   ar
     3    21    22   ar
     4    22    23   ar
     5    23    24   ar
     6    24    25    2
     7    24    26   ar
     8    26    18    1
     9    18     1    1
    10     1     2    1
    11     2     3    1
    12     3     4    1
    13     4     5    1
    14     5     8    1
    15     8     9   ar
    16     9    10   ar
    17    10    11   ar
    18    11    12   ar
    19    12    13   ar
    20    13    14    1
    21    13    15   ar
    22    15    16   ar
    23    16    17   ar
    24     5     6    1
    25     6     7    1
    26    23    27    1
    27    27    28    1
    28    28    29    1
    29    29    30    1
    30    30    31    1
    31    26    20   ar
    32     7     2    1
    33    30    22    1
    34    17     8   ar
    35    17    11   ar
    36    31    32    1
@<TRIPOS>MOLECULE
*****
 32 36 0 0 0
SMALL
GASTEIGER

@<TRIPOS>ATOM
      1 C         138.5316  138.4143  161.1353 C.3     1  UNL1        0.0770
      2 N         139.3291  138.6612  162.3815 N.3     1  UNL1       -0.2724
      3 C         140.7840  139.0130  162.2835 C.3     1  UNL1        0.0725
      4 C         141.5815  139.2600  163.5296 C.3     1  UNL1        0.0234
      5 C         140.9241  139.1551  164.8739 C.3     1  UNL1        0.0464
      6 C         139.4693  138.8033  164.9719 C.3     1  UNL1        0.0234
      7 C         138.6717  138.5563  163.7257 C.3     1  UNL1        0.0725
      8 C         141.7216  139.4020  166.1200 C.ar    1  UNL1        0.1003
      9 N         142.8048  138.5179  166.6633 N.ar    1  UNL1       -0.0814
     10 O         143.3286  139.1460  167.9209 O.2     1  UNL1       -0.3536
     11 C         142.5691  140.4182  168.1547 C.ar    1  UNL1        0.1787
     12 C         142.6536  141.4531  169.2373 C.ar    1  UNL1        0.0698
     13 C         141.7450  142.6461  169.2069 C.ar    1  UNL1        0.1433
     14 F         141.8295  143.6809  170.2895 F       1  UNL1       -0.2041
     15 C         140.7518  142.8044  168.0940 C.ar    1  UNL1        0.0299
     16 C         140.6674  141.7696  167.0114 C.ar    1  UNL1        0.0067
     17 C         141.5760  140.5765  167.0418 C.ar    1  UNL1        0.0540
     18 C         138.0403  139.5718  160.3176 C.3     1  UNL1        0.0497
     19 C         140.2679  140.3812  158.4784 C.3     1  UNL1        0.0520
     20 C         139.7956  141.3245  159.5449 C.ar    1  UNL1        0.0614
     21 N         140.4372  142.6723  159.6917 N.ar    1  UNL1       -0.2343
     22 C         139.9650  143.6156  160.7583 C.ar    1  UNL1        0.1491
     23 N         138.8512  143.2109  161.6779 N.ar    1  UNL1       -0.2824
     24 C         138.2096  141.8629  161.5310 C.ar    1  UNL1        0.2589
     25 O         137.0958  141.4582  162.4506 O.2     1  UNL1       -0.2672
     26 C         138.6819  140.9198  160.4645 C.ar    1  UNL1        0.0489
     27 C         138.3790  144.1540  162.7443 C.3     1  UNL1        0.1103
     28 C         139.0205  145.5019  162.8912 C.3     1  UNL1        0.0276
     29 C         140.1343  145.9066  161.9716 C.3     1  UNL1        0.0390
     30 C         140.6065  144.9635  160.9051 C.3     1  UNL1        0.1668
     31 O         141.7203  145.3682  159.9855 O.3     1  UNL1       -0.3770
     32 H         142.5551  145.3906  160.4790 H       1  UNL1        0.2109
@<TRIPOS>BOND
     1    19    20    1
     2    20    21   ar
     3    21    22   ar
     4    22    23   ar
     5    23    24   ar
     6    24    25    2
     7    24    26   ar
     8    26    18    1
     9    18     1    1
    10     1     2    1
    11     2     3    1
    12     3     4    1
    13     4     5    1
    14     5     8    1
    15     8     9   ar
    16     9    10   ar
    17    10    11   ar
    18    11    12   ar
    19    12    13   ar
    20    13    14    1
    21    13    15   ar
    22    15    16   ar
    23    16    17   ar
    24     5     6    1
    25     6     7    1
    26    23    27    1
    27    27    28    1
    28    28    29    1
    29    29    30    1
    30    30    31    1
    31    26    20   ar
    32     7     2    1
    33    30    22    1
    34    17     8   ar
    35    17    11   ar
    36    31    32    1
@<TRIPOS>MOLECULE
*****
 32 36 0 0 0
SMALL
GASTEIGER

@<TRIPOS>ATOM
      1 C         144.8396  141.7897  161.9500 C.3     1  UNL1        0.0770
      2 N         144.3415  141.8347  163.3641 N.3     1  UNL1       -0.2724
      3 C         144.0062  143.1514  163.9998 C.3     1  UNL1        0.0725
      4 C         143.5081  143.1964  165.4139 C.3     1  UNL1        0.0234
      5 C         143.3452  141.9246  166.1925 C.3     1  UNL1        0.0464
      6 C         143.6804  140.6080  165.5569 C.3     1  UNL1        0.0234
      7 C         144.1786  140.5630  164.1427 C.3     1  UNL1        0.0725
      8 C         142.8472  141.9696  167.6066 C.ar    1  UNL1        0.1003
      9 N         143.5396  142.6245  168.7649 N.ar    1  UNL1       -0.0814
     10 O         142.6895  142.4272  169.9850 O.2     1  UNL1       -0.3536
     11 C         141.4717  141.6503  169.5807 C.ar    1  UNL1        0.1787
     12 C         140.2866  141.1639  170.3611 C.ar    1  UNL1        0.0698
     13 C         139.1990  140.3947  169.6717 C.ar    1  UNL1        0.1433
     14 F         138.0139  139.9083  170.4520 F       1  UNL1       -0.2041
     15 C         139.2964  140.1119  168.2017 C.ar    1  UNL1        0.0299
     16 C         140.4814  140.5983  167.4213 C.ar    1  UNL1        0.0067
     17 C         141.5691  141.3675  168.1108 C.ar    1  UNL1        0.0540
     18 C         143.8635  141.7760  160.8111 C.3     1  UNL1        0.0497
     19 C         141.8189  143.9388  161.1875 C.3     1  UNL1        0.0520
     20 C         141.4058  142.4979  161.2460 C.ar    1  UNL1        0.0614
     21 N         139.9706  142.1385  161.4927 N.ar    1  UNL1       -0.2343
     22 C         139.5576  140.6976  161.5511 C.ar    1  UNL1        0.1491
     23 N         140.5799  139.6162  161.3629 N.ar    1  UNL1       -0.2824
     24 C         142.0152  139.9757  161.1163 C.ar    1  UNL1        0.2589
     25 O         143.0375  138.8943  160.9281 O.2     1  UNL1       -0.2672
     26 C         142.4282  141.4165  161.0578 C.ar    1  UNL1        0.0489
     27 C         140.1670  138.1754  161.4214 C.3     1  UNL1        0.1103
     28 C         138.7317  137.8160  161.6681 C.3     1  UNL1        0.0276
     29 C         137.7094  138.8974  161.8563 C.3     1  UNL1        0.0390
     30 C         138.1224  140.3382  161.7978 C.3     1  UNL1        0.1668
     31 O         137.1001  141.4197  161.9860 O.3     1  UNL1       -0.3770
     32 H         136.8109  141.4337  162.9118 H       1  UNL1        0.2109
@<TRIPOS>BOND
     1    19    20    1
     2    20    21   ar
     3    21    22   ar
     4    22    23   ar
     5    23    24   ar
     6    24    25    2
     7    24    26   ar
     8    26    18    1
     9    18     1    1
    10     1     2    1
    11     2     3    1
    12     3     4    1
    13     4     5    1
    14     5     8    1
    15     8     9   ar
    16     9    10   ar
    17    10    11   ar
    18    11    12   ar
    19    12    13   ar
    20    13    14    1
    21    13    15   ar
    22    15    16   ar
    23    16    17   ar
    24     5     6    1
    25     6     7    1
    26    23    27    1
    27    27    28    1
    28    28    29    1
    29    29    30    1
    30    30    31    1
    31    26    20   ar
    32     7     2    1
    33    30    22    1
    34    17     8   ar
    35    17    11   ar
    36    31    32    1
@<TRIPOS>MOLECULE
*****
 32 36 0 0 0
SMALL
GASTEIGER

@<TRIPOS>ATOM
      1 C         138.0107  141.6631  159.9132 C.3     1  UNL1        0.0770
      2 N         138.1237  141.2358  161.3466 N.3     1  UNL1       -0.2724
      3 C         138.7691  139.9260  161.6902 C.3     1  UNL1        0.0725
      4 C         138.8821  139.4987  163.1236 C.3     1  UNL1        0.0234
      5 C         138.3498  140.3812  164.2134 C.3     1  UNL1        0.0464
      6 C         137.7044  141.6910  163.8700 C.3     1  UNL1        0.0234
      7 C         137.5914  142.1183  162.4365 C.3     1  UNL1        0.0725
      8 C         138.4628  139.9540  165.6468 C.ar    1  UNL1        0.1003
      9 N         137.6982  138.8395  166.2976 N.ar    1  UNL1       -0.0814
     10 O         138.1231  138.7629  167.7342 O.2     1  UNL1       -0.3536
     11 C         139.1504  139.8300  167.9712 C.ar    1  UNL1        0.1787
     12 C         139.9217  140.2266  169.1950 C.ar    1  UNL1        0.0698
     13 C         140.9029  141.3591  169.1289 C.ar    1  UNL1        0.1433
     14 F         141.6743  141.7556  170.3527 F       1  UNL1       -0.2041
     15 C         141.1129  142.0952  167.8389 C.ar    1  UNL1        0.0299
     16 C         140.3416  141.6987  166.6150 C.ar    1  UNL1        0.0067
     17 C         139.3603  140.5661  166.6812 C.ar    1  UNL1        0.0540
     18 C         139.1570  142.3646  159.2472 C.3     1  UNL1        0.0497
     19 C         141.4301  140.4761  158.7305 C.3     1  UNL1        0.0520
     20 C         141.5929  141.5933  159.7182 C.ar    1  UNL1        0.0614
     21 N         142.8922  141.7662  160.4475 N.ar    1  UNL1       -0.2343
     22 C         143.0550  142.8834  161.4352 C.ar    1  UNL1        0.1491
     23 N         141.9185  143.8276  161.6935 N.ar    1  UNL1       -0.2824
     24 C         140.6191  143.6547  160.9641 C.ar    1  UNL1        0.2589
     25 O         139.4826  144.5989  161.2224 O.2     1  UNL1       -0.2672
     26 C         140.4564  142.5375  159.9765 C.ar    1  UNL1        0.0489
     27 C         142.0812  144.9448  162.6811 C.3     1  UNL1        0.1103
     28 C         143.3805  145.1177  163.4104 C.3     1  UNL1        0.0276
     29 C         144.5170  144.1735  163.1521 C.3     1  UNL1        0.0390
     30 C         144.3543  143.0563  162.1645 C.3     1  UNL1        0.1668
     31 O         145.4908  142.1121  161.9061 O.3     1  UNL1       -0.3770
     32 H         145.6223  141.5445  162.6817 H       1  UNL1        0.2109
@<TRIPOS>BOND
     1    19    20    1
     2    20    21   ar
     3    21    22   ar
     4    22    23   ar
     5    23    24   ar
     6    24    25    2
     7    24    26   ar
     8    26    18    1
     9    18     1    1
    10     1     2    1
    11     2     3    1
    12     3     4    1
    13     4     5    1
    14     5     8    1
    15     8     9   ar
    16     9    10   ar
    17    10    11   ar
    18    11    12   ar
    19    12    13   ar
    20    13    14    1
    21    13    15   ar
    22    15    16   ar
    23    16    17   ar
    24     5     6    1
    25     6     7    1
    26    23    27    1
    27    27    28    1
    28    28    29    1
    29    29    30    1
    30    30    31    1
    31    26    20   ar
    32     7     2    1
    33    30    22    1
    34    17     8   ar
    35    17    11   ar
    36    31    32    1
