@<TRIPOS>MOLECULE
*****
 33 36 0 0 0
SMALL
GASTEIGER

@<TRIPOS>ATOM
      1 C         140.2911  143.4339  164.2575 C.ar    1  UNL1        0.0505
      2 C         140.3022  142.4261  163.1465 C.ar    1  UNL1        0.0148
      3 C         140.6851  142.8447  161.7580 C.ar    1  UNL1        0.0060
      4 C         141.0569  144.2712  161.4804 C.ar    1  UNL1        0.0553
      5 C         141.0458  145.2790  162.5913 C.ar    1  UNL1        0.0060
      6 C         140.6629  144.8604  163.9798 C.ar    1  UNL1        0.0148
      7 C         141.4397  144.6897  160.0917 C.ar    1  UNL1        0.2512
      8 N         142.6017  144.1649  159.3015 N.ar    1  UNL1       -0.1058
      9 N         142.6080  144.8574  157.9709 N.ar    1  UNL1       -0.0923
     10 C         141.4500  145.8103  157.9388 C.ar    1  UNL1        0.3086
     11 O         140.7280  145.7066  159.2495 O.2     1  UNL1       -0.4048
     12 N         141.0790  146.7090  156.7966 N.pl3   1  UNL1       -0.2871
     13 H         140.9438  147.6717  156.9515 H       1  UNL1        0.1512
     14 C         140.9142  146.1408  155.4182 C.3     1  UNL1        0.0925
     15 C         139.6118  146.3014  154.6916 C.3     1  UNL1        0.0386
     16 C         138.5813  147.2639  155.2031 C.3     1  UNL1        0.0740
     17 N         138.9355  148.7083  155.3979 N.3     1  UNL1       -0.2684
     18 C         139.7633  149.4228  154.3711 C.3     1  UNL1        0.1046
     19 C         140.1175  150.8672  154.5659 C.3     1  UNL1        0.1595
     20 O         139.6439  151.5974  155.7876 O.3     1  UNL1       -0.3508
     21 C         138.8161  150.8830  156.8144 C.3     1  UNL1        0.1595
     22 C         138.4619  149.4385  156.6196 C.3     1  UNL1        0.1046
     23 O         142.3884  142.4318  166.1541 O.2     1  UNL1       -0.2697
     24 C         140.9568  142.5143  166.5944 C.2     1  UNL1        0.2517
     25 N         139.9082  143.0153  165.6461 N.am    1  UNL1       -0.2803
     26 H         138.9686  143.0695  165.9351 H       1  UNL1        0.1552
     27 C         140.5739  142.0957  167.9830 C.ar    1  UNL1        0.0811
     28 C         140.3908  143.1295  169.0543 C.ar    1  UNL1        0.0068
     29 C         140.0079  142.7109  170.4428 C.ar    1  UNL1        0.0003
     30 C         139.8082  141.2585  170.7601 C.ar    1  UNL1        0.0023
     31 C         139.9914  140.2247  169.6888 C.ar    1  UNL1        0.0298
     32 C         140.3743  140.6433  168.3003 C.ar    1  UNL1        0.1445
     33 F         140.5575  139.6095  167.2289 F       1  UNL1       -0.2040
@<TRIPOS>BOND
     1    23    24    2
     2    24    25   am
     3    25     1    1
     4     1     2   ar
     5     2     3   ar
     6     3     4   ar
     7     4     7    1
     8     7     8   ar
     9     8     9   ar
    10     9    10   ar
    11    10    12    1
    12    12    14    1
    13    14    15    1
    14    15    16    1
    15    16    17    1
    16    17    18    1
    17    18    19    1
    18    19    20    1
    19    20    21    1
    20    21    22    1
    21    10    11   ar
    22     4     5   ar
    23     5     6   ar
    24    24    27    1
    25    27    28   ar
    26    28    29   ar
    27    29    30   ar
    28    30    31   ar
    29    31    32   ar
    30    32    33    1
    31     6     1   ar
    32    32    27   ar
    33    11     7   ar
    34    22    17    1
    35    25    26    1
    36    12    13    1
@<TRIPOS>MOLECULE
*****
 33 36 0 0 0
SMALL
GASTEIGER

@<TRIPOS>ATOM
      1 C         142.6219  137.9222  158.2037 C.ar    1  UNL1        0.0505
      2 C         142.7204  139.3384  157.7191 C.ar    1  UNL1        0.0148
      3 C         143.1895  140.4182  158.6485 C.ar    1  UNL1        0.0060
      4 C         143.5601  140.0819  160.0626 C.ar    1  UNL1        0.0553
      5 C         143.4616  138.6658  160.5472 C.ar    1  UNL1        0.0060
      6 C         142.9925  137.5859  159.6178 C.ar    1  UNL1        0.0148
      7 C         144.0292  141.1618  160.9921 C.ar    1  UNL1        0.2512
      8 N         145.0297  141.0000  162.0979 N.ar    1  UNL1       -0.1058
      9 N         145.1991  142.3312  162.7682 N.ar    1  UNL1       -0.0923
     10 C         144.3032  143.3157  162.0765 C.ar    1  UNL1        0.3086
     11 O         143.5802  142.5929  160.9789 O.2     1  UNL1       -0.4048
     12 N         144.1561  144.7680  162.4219 N.pl3   1  UNL1       -0.2871
     13 H         144.4832  145.4574  161.8000 H       1  UNL1        0.1512
     14 C         143.5108  145.1697  163.7150 C.3     1  UNL1        0.0925
     15 C         142.2652  144.4746  164.1793 C.3     1  UNL1        0.0386
     16 C         140.9190  145.0486  163.8504 C.3     1  UNL1        0.0740
     17 N         140.0319  144.3586  162.8571 N.3     1  UNL1       -0.2684
     18 C         140.4835  144.1928  161.4363 C.3     1  UNL1        0.1046
     19 C         139.5963  143.5028  160.4430 C.3     1  UNL1        0.1595
     20 O         138.2575  142.9786  160.8704 O.3     1  UNL1       -0.3508
     21 C         137.8058  143.1444  162.2911 C.3     1  UNL1        0.1595
     22 C         138.6930  143.8344  163.2845 C.3     1  UNL1        0.1046
     23 O         144.4041  136.9746  155.9843 O.2     1  UNL1       -0.2697
     24 C         143.0439  136.3685  156.1646 C.2     1  UNL1        0.2517
     25 N         142.1528  136.8423  157.2742 N.am    1  UNL1       -0.2803
     26 H         141.2600  136.4446  157.3926 H       1  UNL1        0.1552
     27 C         142.5747  135.2886  155.2351 C.ar    1  UNL1        0.0811
     28 C         142.2803  135.6101  153.7999 C.ar    1  UNL1        0.0068
     29 C         141.8112  134.5302  152.8705 C.ar    1  UNL1        0.0003
     30 C         141.6366  133.1289  153.3764 C.ar    1  UNL1        0.0023
     31 C         141.9310  132.8075  154.8116 C.ar    1  UNL1        0.0298
     32 C         142.4001  133.8874  155.7410 C.ar    1  UNL1        0.1445
     33 F         142.6946  133.5660  157.1763 F       1  UNL1       -0.2040
@<TRIPOS>BOND
     1    23    24    2
     2    24    25   am
     3    25     1    1
     4     1     2   ar
     5     2     3   ar
     6     3     4   ar
     7     4     7    1
     8     7     8   ar
     9     8     9   ar
    10     9    10   ar
    11    10    12    1
    12    12    14    1
    13    14    15    1
    14    15    16    1
    15    16    17    1
    16    17    18    1
    17    18    19    1
    18    19    20    1
    19    20    21    1
    20    21    22    1
    21    10    11   ar
    22     4     5   ar
    23     5     6   ar
    24    24    27    1
    25    27    28   ar
    26    28    29   ar
    27    29    30   ar
    28    30    31   ar
    29    31    32   ar
    30    32    33    1
    31     6     1   ar
    32    32    27   ar
    33    11     7   ar
    34    22    17    1
    35    25    26    1
    36    12    13    1
@<TRIPOS>MOLECULE
*****
 33 36 0 0 0
SMALL
GASTEIGER

@<TRIPOS>ATOM
      1 C         140.8904  142.7996  164.5018 C.ar    1  UNL1        0.0505
      2 C         140.6415  144.2277  164.1165 C.ar    1  UNL1        0.0148
      3 C         140.9651  144.6974  162.7292 C.ar    1  UNL1        0.0060
      4 C         141.5375  143.7391  161.7272 C.ar    1  UNL1        0.0553
      5 C         141.7863  142.3110  162.1125 C.ar    1  UNL1        0.0060
      6 C         141.4628  141.8412  163.4998 C.ar    1  UNL1        0.0148
      7 C         141.8610  144.2089  160.3399 C.ar    1  UNL1        0.2512
      8 N         142.9287  143.6504  159.4464 N.ar    1  UNL1       -0.1058
      9 N         142.9013  144.4159  158.1568 N.ar    1  UNL1       -0.0923
     10 C         141.8167  145.4477  158.2533 C.ar    1  UNL1        0.3086
     11 O         141.1738  145.3197  159.6025 O.2     1  UNL1       -0.4048
     12 N         141.4410  146.4342  157.1876 N.pl3   1  UNL1       -0.2871
     13 H         141.9550  147.2676  157.0850 H       1  UNL1        0.1512
     14 C         140.2822  146.1510  156.2783 C.3     1  UNL1        0.0925
     15 C         139.1466  147.1265  156.1844 C.3     1  UNL1        0.0386
     16 C         138.9552  147.9369  154.9367 C.3     1  UNL1        0.0740
     17 N         139.3008  149.3964  154.9300 N.3     1  UNL1       -0.2684
     18 C         138.4800  150.3653  155.7286 C.3     1  UNL1        0.1046
     19 C         138.8256  151.8248  155.7219 C.3     1  UNL1        0.1595
     20 O         139.9921  152.3157  154.9166 O.3     1  UNL1       -0.3508
     21 C         140.8129  151.3469  154.1181 C.3     1  UNL1        0.1595
     22 C         140.4673  149.8873  154.1248 C.3     1  UNL1        0.1046
     23 O         143.0840  142.4571  166.5194 O.2     1  UNL1       -0.2697
     24 C         141.6636  142.1585  166.8979 C.2     1  UNL1        0.2517
     25 N         140.5668  142.3297  165.8891 N.am    1  UNL1       -0.2803
     26 H         139.6345  142.1338  166.1376 H       1  UNL1        0.1552
     27 C         141.3400  141.6887  168.2852 C.ar    1  UNL1        0.0811
     28 C         141.8021  140.3383  168.7466 C.ar    1  UNL1        0.0068
     29 C         141.4785  139.8686  170.1339 C.ar    1  UNL1        0.0003
     30 C         140.6929  140.7492  171.0598 C.ar    1  UNL1        0.0023
     31 C         140.2308  142.0996  170.5984 C.ar    1  UNL1        0.0298
     32 C         140.5544  142.5693  169.2111 C.ar    1  UNL1        0.1445
     33 F         140.0923  143.9198  168.7497 F       1  UNL1       -0.2040
@<TRIPOS>BOND
     1    23    24    2
     2    24    25   am
     3    25     1    1
     4     1     2   ar
     5     2     3   ar
     6     3     4   ar
     7     4     7    1
     8     7     8   ar
     9     8     9   ar
    10     9    10   ar
    11    10    12    1
    12    12    14    1
    13    14    15    1
    14    15    16    1
    15    16    17    1
    16    17    18    1
    17    18    19    1
    18    19    20    1
    19    20    21    1
    20    21    22    1
    21    10    11   ar
    22     4     5   ar
    23     5     6   ar
    24    24    27    1
    25    27    28   ar
    26    28    29   ar
    27    29    30   ar
    28    30    31   ar
    29    31    32   ar
    30    32    33    1
    31     6     1   ar
    32    32    27   ar
    33    11     7   ar
    34    22    17    1
    35    25    26    1
    36    12    13    1
@<TRIPOS>MOLECULE
*****
 33 36 0 0 0
SMALL
GASTEIGER

@<TRIPOS>ATOM
      1 C         141.6268  144.9157  161.2648 C.ar    1  UNL1        0.0505
      2 C         140.6963  145.3719  162.3492 C.ar    1  UNL1        0.0148
      3 C         140.7880  144.7683  163.7193 C.ar    1  UNL1        0.0060
      4 C         141.8102  143.7084  164.0050 C.ar    1  UNL1        0.0553
      5 C         142.7408  143.2522  162.9206 C.ar    1  UNL1        0.0060
      6 C         142.6491  143.8559  161.5505 C.ar    1  UNL1        0.0148
      7 C         141.9019  143.1047  165.3751 C.ar    1  UNL1        0.2512
      8 N         143.1465  142.5754  166.0239 N.ar    1  UNL1       -0.1058
      9 N         142.7789  142.0679  167.3867 N.ar    1  UNL1       -0.0923
     10 C         141.3071  142.2836  167.5802 C.ar    1  UNL1        0.3086
     11 O         140.7651  142.9243  166.3370 O.2     1  UNL1       -0.4048
     12 N         140.5162  141.9219  168.8024 N.pl3   1  UNL1       -0.2871
     13 H         140.5420  142.5045  169.5956 H       1  UNL1        0.1512
     14 C         139.6860  140.6727  168.8160 C.3     1  UNL1        0.0925
     15 C         139.7782  139.6985  167.6792 C.3     1  UNL1        0.0386
     16 C         138.5321  139.2398  166.9815 C.3     1  UNL1        0.0740
     17 N         138.5031  139.1421  165.4851 N.3     1  UNL1       -0.2684
     18 C         138.8967  137.8621  164.8092 C.3     1  UNL1        0.1046
     19 C         138.8677  137.7645  163.3127 C.3     1  UNL1        0.1595
     20 O         138.4451  138.9468  162.4920 O.3     1  UNL1       -0.3508
     21 C         138.0516  140.2267  163.1678 C.3     1  UNL1        0.1595
     22 C         138.0806  140.3244  164.6644 C.3     1  UNL1        0.1046
     23 O         139.4350  144.0729  159.3978 O.2     1  UNL1       -0.2697
     24 C         140.4393  145.0980  158.9612 C.2     1  UNL1        0.2517
     25 N         141.5352  145.5194  159.8947 N.am    1  UNL1       -0.2803
     26 H         142.1943  146.1922  159.6081 H       1  UNL1        0.1552
     27 C         140.3476  145.7017  157.5911 C.ar    1  UNL1        0.0811
     28 C         139.3577  146.7950  157.3179 C.ar    1  UNL1        0.0068
     29 C         139.2661  147.3986  155.9478 C.ar    1  UNL1        0.0003
     30 C         140.1644  146.9089  154.8509 C.ar    1  UNL1        0.0023
     31 C         141.1543  145.8156  155.1241 C.ar    1  UNL1        0.0298
     32 C         141.2460  145.2120  156.4942 C.ar    1  UNL1        0.1445
     33 F         142.2360  144.1187  156.7674 F       1  UNL1       -0.2040
@<TRIPOS>BOND
     1    23    24    2
     2    24    25   am
     3    25     1    1
     4     1     2   ar
     5     2     3   ar
     6     3     4   ar
     7     4     7    1
     8     7     8   ar
     9     8     9   ar
    10     9    10   ar
    11    10    12    1
    12    12    14    1
    13    14    15    1
    14    15    16    1
    15    16    17    1
    16    17    18    1
    17    18    19    1
    18    19    20    1
    19    20    21    1
    20    21    22    1
    21    10    11   ar
    22     4     5   ar
    23     5     6   ar
    24    24    27    1
    25    27    28   ar
    26    28    29   ar
    27    29    30   ar
    28    30    31   ar
    29    31    32   ar
    30    32    33    1
    31     6     1   ar
    32    32    27   ar
    33    11     7   ar
    34    22    17    1
    35    25    26    1
    36    12    13    1
@<TRIPOS>MOLECULE
*****
 33 36 0 0 0
SMALL
GASTEIGER

@<TRIPOS>ATOM
      1 C         141.7170  140.0679  163.7557 C.ar    1  UNL1        0.0505
      2 C         141.5937  141.0593  162.6369 C.ar    1  UNL1        0.0148
      3 C         141.6861  140.5981  161.2126 C.ar    1  UNL1        0.0060
      4 C         141.9017  139.1454  160.9071 C.ar    1  UNL1        0.0553
      5 C         142.0250  138.1540  162.0260 C.ar    1  UNL1        0.0060
      6 C         141.9327  138.6153  163.4503 C.ar    1  UNL1        0.0148
      7 C         141.9940  138.6842  159.4827 C.ar    1  UNL1        0.2512
      8 N         140.9743  138.9265  158.4097 N.ar    1  UNL1       -0.1058
      9 N         141.4723  138.2918  157.1451 N.ar    1  UNL1       -0.0923
     10 C         142.7998  137.6571  157.4367 C.ar    1  UNL1        0.3086
     11 O         143.1222  137.8996  158.8814 O.2     1  UNL1       -0.4048
     12 N         143.6548  136.9109  156.4557 N.pl3   1  UNL1       -0.2871
     13 H         144.5316  136.5603  156.7339 H       1  UNL1        0.1512
     14 C         143.1737  136.6990  155.0508 C.3     1  UNL1        0.0925
     15 C         142.4862  135.4188  154.6786 C.3     1  UNL1        0.0386
     16 C         142.1646  134.4051  155.7364 C.3     1  UNL1        0.0740
     17 N         143.2264  133.4619  156.2188 N.3     1  UNL1       -0.2684
     18 C         143.6335  132.2936  155.3706 C.3     1  UNL1        0.1046
     19 C         144.6953  131.3504  155.8530 C.3     1  UNL1        0.1595
     20 O         145.3501  131.5753  157.1836 O.3     1  UNL1       -0.3508
     21 C         144.9430  132.7435  158.0319 C.3     1  UNL1        0.1595
     22 C         143.8812  133.6868  157.5494 C.3     1  UNL1        0.1046
     23 O         139.0333  140.5700  164.9989 O.2     1  UNL1       -0.2697
     24 C         140.2829  140.7802  165.8017 C.2     1  UNL1        0.2517
     25 N         141.6247  140.5292  165.1801 N.am    1  UNL1       -0.2803
     26 H         142.4448  140.6671  165.7070 H       1  UNL1        0.1552
     27 C         140.1905  141.2414  167.2261 C.ar    1  UNL1        0.0811
     28 C         140.7884  142.5569  167.6287 C.ar    1  UNL1        0.0068
     29 C         140.6960  143.0180  169.0530 C.ar    1  UNL1        0.0003
     30 C         140.0058  142.1638  170.0747 C.ar    1  UNL1        0.0023
     31 C         139.4080  140.8483  169.6721 C.ar    1  UNL1        0.0298
     32 C         139.5003  140.3872  168.2478 C.ar    1  UNL1        0.1445
     33 F         138.9025  139.0717  167.8451 F       1  UNL1       -0.2040
@<TRIPOS>BOND
     1    23    24    2
     2    24    25   am
     3    25     1    1
     4     1     2   ar
     5     2     3   ar
     6     3     4   ar
     7     4     7    1
     8     7     8   ar
     9     8     9   ar
    10     9    10   ar
    11    10    12    1
    12    12    14    1
    13    14    15    1
    14    15    16    1
    15    16    17    1
    16    17    18    1
    17    18    19    1
    18    19    20    1
    19    20    21    1
    20    21    22    1
    21    10    11   ar
    22     4     5   ar
    23     5     6   ar
    24    24    27    1
    25    27    28   ar
    26    28    29   ar
    27    29    30   ar
    28    30    31   ar
    29    31    32   ar
    30    32    33    1
    31     6     1   ar
    32    32    27   ar
    33    11     7   ar
    34    22    17    1
    35    25    26    1
    36    12    13    1
@<TRIPOS>MOLECULE
*****
 33 36 0 0 0
SMALL
GASTEIGER

@<TRIPOS>ATOM
      1 C         142.6116  137.9961  158.3325 C.ar    1  UNL1        0.0505
      2 C         143.0165  137.6693  159.7393 C.ar    1  UNL1        0.0148
      3 C         143.4795  138.7601  160.6590 C.ar    1  UNL1        0.0060
      4 C         143.5377  140.1776  160.1719 C.ar    1  UNL1        0.0553
      5 C         143.1328  140.5043  158.7650 C.ar    1  UNL1        0.0060
      6 C         142.6697  139.4136  157.8453 C.ar    1  UNL1        0.0148
      7 C         144.0008  141.2683  161.0916 C.ar    1  UNL1        0.2512
      8 N         145.0547  141.1399  162.1512 N.ar    1  UNL1       -0.1058
      9 N         145.1966  142.4711  162.8277 N.ar    1  UNL1       -0.0923
     10 C         144.2303  143.4223  162.1862 C.ar    1  UNL1        0.3086
     11 O         143.4913  142.6789  161.1132 O.2     1  UNL1       -0.4048
     12 N         144.0370  144.8638  162.5532 N.pl3   1  UNL1       -0.2871
     13 H         144.4921  145.5684  162.0376 H       1  UNL1        0.1512
     14 C         143.1503  145.2319  163.7057 C.3     1  UNL1        0.0925
     15 C         141.6599  145.1357  163.5659 C.3     1  UNL1        0.0386
     16 C         140.9043  144.0721  164.3060 C.3     1  UNL1        0.0740
     17 N         139.7179  143.4130  163.6675 N.3     1  UNL1       -0.2684
     18 C         139.5016  143.5290  162.1877 C.3     1  UNL1        0.1046
     19 C         138.3152  142.8698  161.5491 C.3     1  UNL1        0.1595
     20 O         137.3450  142.0945  162.3903 O.3     1  UNL1       -0.3508
     21 C         137.5612  141.9785  163.8701 C.3     1  UNL1        0.1595
     22 C         138.7477  142.6377  164.5087 C.3     1  UNL1        0.1046
     23 O         144.3331  137.1461  156.0273 O.2     1  UNL1       -0.2697
     24 C         143.0093  136.4804  156.2602 C.2     1  UNL1        0.2517
     25 N         142.1485  136.9053  157.4127 N.am    1  UNL1       -0.2803
     26 H         141.2796  136.4684  157.5656 H       1  UNL1        0.1552
     27 C         142.5462  135.3896  155.3404 C.ar    1  UNL1        0.0811
     28 C         142.3050  134.0093  155.8756 C.ar    1  UNL1        0.0068
     29 C         141.8420  132.9186  154.9559 C.ar    1  UNL1        0.0003
     30 C         141.6201  133.2083  153.5009 C.ar    1  UNL1        0.0023
     31 C         141.8612  134.5886  152.9657 C.ar    1  UNL1        0.0298
     32 C         142.3243  135.6793  153.8855 C.ar    1  UNL1        0.1445
     33 F         142.5654  137.0597  153.3503 F       1  UNL1       -0.2040
@<TRIPOS>BOND
     1    23    24    2
     2    24    25   am
     3    25     1    1
     4     1     2   ar
     5     2     3   ar
     6     3     4   ar
     7     4     7    1
     8     7     8   ar
     9     8     9   ar
    10     9    10   ar
    11    10    12    1
    12    12    14    1
    13    14    15    1
    14    15    16    1
    15    16    17    1
    16    17    18    1
    17    18    19    1
    18    19    20    1
    19    20    21    1
    20    21    22    1
    21    10    11   ar
    22     4     5   ar
    23     5     6   ar
    24    24    27    1
    25    27    28   ar
    26    28    29   ar
    27    29    30   ar
    28    30    31   ar
    29    31    32   ar
    30    32    33    1
    31     6     1   ar
    32    32    27   ar
    33    11     7   ar
    34    22    17    1
    35    25    26    1
    36    12    13    1
@<TRIPOS>MOLECULE
*****
 33 36 0 0 0
SMALL
GASTEIGER

@<TRIPOS>ATOM
      1 C         139.1410  140.1105  163.2448 C.ar    1  UNL1        0.0505
      2 C         139.6095  141.1068  162.2260 C.ar    1  UNL1        0.0148
      3 C         139.7525  140.6996  160.7895 C.ar    1  UNL1        0.0060
      4 C         139.4271  139.2961  160.3717 C.ar    1  UNL1        0.0553
      5 C         138.9586  138.2999  161.3905 C.ar    1  UNL1        0.0060
      6 C         138.8156  138.7071  162.8271 C.ar    1  UNL1        0.0148
      7 C         139.5702  138.8889  158.9351 C.ar    1  UNL1        0.2512
      8 N         138.6766  139.3098  157.8062 N.ar    1  UNL1       -0.1058
      9 N         139.1860  138.6704  156.5486 N.ar    1  UNL1       -0.0923
     10 C         140.3946  137.8544  156.9003 C.ar    1  UNL1        0.3086
     11 O         140.6320  137.9895  158.3752 O.2     1  UNL1       -0.4048
     12 N         141.2207  137.0454  155.9447 N.pl3   1  UNL1       -0.2871
     13 H         142.1459  137.3151  155.7435 H       1  UNL1        0.1512
     14 C         140.6371  135.8254  155.2958 C.3     1  UNL1        0.0925
     15 C         141.5394  134.7297  154.8107 C.3     1  UNL1        0.0386
     16 C         141.4241  133.3512  155.3909 C.3     1  UNL1        0.0740
     17 N         142.5175  132.8111  156.2640 N.3     1  UNL1       -0.2684
     18 C         143.4067  133.7524  157.0212 C.3     1  UNL1        0.1046
     19 C         144.5002  133.2123  157.8944 C.3     1  UNL1        0.1595
     20 O         144.7046  131.7308  158.0105 O.3     1  UNL1       -0.3508
     21 C         143.8154  130.7895  157.2533 C.3     1  UNL1        0.1595
     22 C         142.7219  131.3297  156.3801 C.3     1  UNL1        0.1046
     23 O         141.5059  139.9731  165.0856 O.2     1  UNL1       -0.2697
     24 C         140.1804  140.4490  165.6018 C.2     1  UNL1        0.2517
     25 N         138.9979  140.5177  164.6814 N.am    1  UNL1       -0.2803
     26 H         138.1279  140.8301  165.0202 H       1  UNL1        0.1552
     27 C         140.0373  140.8562  167.0384 C.ar    1  UNL1        0.0811
     28 C         139.3986  139.9218  168.0227 C.ar    1  UNL1        0.0068
     29 C         139.2556  140.3290  169.4593 C.ar    1  UNL1        0.0003
     30 C         139.7512  141.6706  169.9115 C.ar    1  UNL1        0.0023
     31 C         140.3899  142.6050  168.9271 C.ar    1  UNL1        0.0298
     32 C         140.5329  142.1978  167.4906 C.ar    1  UNL1        0.1445
     33 F         141.1716  143.1322  166.5062 F       1  UNL1       -0.2040
@<TRIPOS>BOND
     1    23    24    2
     2    24    25   am
     3    25     1    1
     4     1     2   ar
     5     2     3   ar
     6     3     4   ar
     7     4     7    1
     8     7     8   ar
     9     8     9   ar
    10     9    10   ar
    11    10    12    1
    12    12    14    1
    13    14    15    1
    14    15    16    1
    15    16    17    1
    16    17    18    1
    17    18    19    1
    18    19    20    1
    19    20    21    1
    20    21    22    1
    21    10    11   ar
    22     4     5   ar
    23     5     6   ar
    24    24    27    1
    25    27    28   ar
    26    28    29   ar
    27    29    30   ar
    28    30    31   ar
    29    31    32   ar
    30    32    33    1
    31     6     1   ar
    32    32    27   ar
    33    11     7   ar
    34    22    17    1
    35    25    26    1
    36    12    13    1
@<TRIPOS>MOLECULE
*****
 33 36 0 0 0
SMALL
GASTEIGER

@<TRIPOS>ATOM
      1 C         142.4804  139.5791  162.3130 C.ar    1  UNL1        0.0505
      2 C         143.6119  138.7076  161.8546 C.ar    1  UNL1        0.0148
      3 C         143.7581  138.3719  160.4000 C.ar    1  UNL1        0.0060
      4 C         142.7729  138.9076  159.4039 C.ar    1  UNL1        0.0553
      5 C         141.6414  139.7791  159.8623 C.ar    1  UNL1        0.0060
      6 C         141.4952  140.1149  161.3169 C.ar    1  UNL1        0.0148
      7 C         142.9192  138.5718  157.9492 C.ar    1  UNL1        0.2512
      8 N         142.8294  139.5404  156.8074 N.ar    1  UNL1       -0.1058
      9 N         143.0356  138.7758  155.5335 N.ar    1  UNL1       -0.0923
     10 C         143.2529  137.3345  155.8881 C.ar    1  UNL1        0.3086
     11 O         143.1809  137.2085  157.3810 O.2     1  UNL1       -0.4048
     12 N         143.4990  136.2157  154.9197 N.pl3   1  UNL1       -0.2871
     13 H         144.3777  135.7728  154.8923 H       1  UNL1        0.1512
     14 C         142.4061  135.7719  153.9930 C.3     1  UNL1        0.0925
     15 C         141.9412  134.3459  154.0103 C.3     1  UNL1        0.0386
     16 C         141.7809  133.6250  155.3159 C.3     1  UNL1        0.0740
     17 N         142.9856  133.0830  156.0262 N.3     1  UNL1       -0.2684
     18 C         143.7690  131.9558  155.4214 C.3     1  UNL1        0.1046
     19 C         144.9737  131.4138  156.1317 C.3     1  UNL1        0.1595
     20 O         145.3953  131.9990  157.4470 O.3     1  UNL1       -0.3508
     21 C         144.6120  133.1262  158.0518 C.3     1  UNL1        0.1595
     22 C         143.4072  133.6682  157.3414 C.3     1  UNL1        0.1046
     23 O         141.0685  137.6795  164.1564 O.2     1  UNL1       -0.2697
     24 C         141.6282  138.9651  164.6893 C.2     1  UNL1        0.2517
     25 N         142.3341  139.9149  163.7677 N.am    1  UNL1       -0.2803
     26 H         142.7015  140.7587  164.1174 H       1  UNL1        0.1552
     27 C         141.4819  139.3009  166.1440 C.ar    1  UNL1        0.0811
     28 C         140.1661  139.7906  166.6720 C.ar    1  UNL1        0.0068
     29 C         140.0199  140.1264  168.1266 C.ar    1  UNL1        0.0003
     30 C         141.1894  139.9725  169.0531 C.ar    1  UNL1        0.0023
     31 C         142.5052  139.4828  168.5251 C.ar    1  UNL1        0.0298
     32 C         142.6514  139.1470  167.0705 C.ar    1  UNL1        0.1445
     33 F         143.9673  138.6573  166.5424 F       1  UNL1       -0.2040
@<TRIPOS>BOND
     1    23    24    2
     2    24    25   am
     3    25     1    1
     4     1     2   ar
     5     2     3   ar
     6     3     4   ar
     7     4     7    1
     8     7     8   ar
     9     8     9   ar
    10     9    10   ar
    11    10    12    1
    12    12    14    1
    13    14    15    1
    14    15    16    1
    15    16    17    1
    16    17    18    1
    17    18    19    1
    18    19    20    1
    19    20    21    1
    20    21    22    1
    21    10    11   ar
    22     4     5   ar
    23     5     6   ar
    24    24    27    1
    25    27    28   ar
    26    28    29   ar
    27    29    30   ar
    28    30    31   ar
    29    31    32   ar
    30    32    33    1
    31     6     1   ar
    32    32    27   ar
    33    11     7   ar
    34    22    17    1
    35    25    26    1
    36    12    13    1
@<TRIPOS>MOLECULE
*****
 33 36 0 0 0
SMALL
GASTEIGER

@<TRIPOS>ATOM
      1 C         141.5162  139.2027  163.3911 C.ar    1  UNL1        0.0505
      2 C         142.3209  138.0342  162.9044 C.ar    1  UNL1        0.0148
      3 C         142.7736  137.9784  161.4755 C.ar    1  UNL1        0.0060
      4 C         142.4216  139.0912  160.5333 C.ar    1  UNL1        0.0553
      5 C         141.6169  140.2598  161.0199 C.ar    1  UNL1        0.0060
      6 C         141.1642  140.3155  162.4489 C.ar    1  UNL1        0.0148
      7 C         142.8744  139.0354  159.1043 C.ar    1  UNL1        0.2512
      8 N         144.0522  139.7605  158.5236 N.ar    1  UNL1       -0.1058
      9 N         144.1346  139.4180  157.0656 N.ar    1  UNL1       -0.0923
     10 C         143.0077  138.4812  156.7451 C.ar    1  UNL1        0.3086
     11 O         142.2289  138.2447  158.0051 O.2     1  UNL1       -0.4048
     12 N         142.7117  137.8854  155.4007 N.pl3   1  UNL1       -0.2871
     13 H         142.4326  138.4655  154.6559 H       1  UNL1        0.1512
     14 C         142.8410  136.4057  155.1911 C.3     1  UNL1        0.0925
     15 C         143.8600  135.6246  155.9667 C.3     1  UNL1        0.0386
     16 C         143.4376  134.8145  157.1564 C.3     1  UNL1        0.0740
     17 N         143.6027  133.3238  157.1455 N.3     1  UNL1       -0.2684
     18 C         142.6071  132.4640  156.4247 C.3     1  UNL1        0.1046
     19 C         142.7722  130.9733  156.4138 C.3     1  UNL1        0.1595
     20 O         143.9330  130.3421  157.1239 O.3     1  UNL1       -0.3508
     21 C         144.9287  131.2017  157.8447 C.3     1  UNL1        0.1595
     22 C         144.7635  132.6926  157.8556 C.3     1  UNL1        0.1046
     23 O         143.3989  140.1521  165.5252 O.2     1  UNL1       -0.2697
     24 C         142.0047  139.7332  165.8871 C.2     1  UNL1        0.2517
     25 N         141.0634  139.2586  164.8201 N.am    1  UNL1       -0.2803
     26 H         140.1484  138.9837  165.0576 H       1  UNL1        0.1552
     27 C         141.5520  139.7890  167.3161 C.ar    1  UNL1        0.0811
     28 C         142.4930  139.3982  168.4168 C.ar    1  UNL1        0.0068
     29 C         142.0402  139.4541  169.8457 C.ar    1  UNL1        0.0003
     30 C         140.6464  139.9007  170.1739 C.ar    1  UNL1        0.0023
     31 C         139.7053  140.2914  169.0732 C.ar    1  UNL1        0.0298
     32 C         140.1581  140.2356  167.6443 C.ar    1  UNL1        0.1445
     33 F         139.2170  140.6264  166.5435 F       1  UNL1       -0.2040
@<TRIPOS>BOND
     1    23    24    2
     2    24    25   am
     3    25     1    1
     4     1     2   ar
     5     2     3   ar
     6     3     4   ar
     7     4     7    1
     8     7     8   ar
     9     8     9   ar
    10     9    10   ar
    11    10    12    1
    12    12    14    1
    13    14    15    1
    14    15    16    1
    15    16    17    1
    16    17    18    1
    17    18    19    1
    18    19    20    1
    19    20    21    1
    20    21    22    1
    21    10    11   ar
    22     4     5   ar
    23     5     6   ar
    24    24    27    1
    25    27    28   ar
    26    28    29   ar
    27    29    30   ar
    28    30    31   ar
    29    31    32   ar
    30    32    33    1
    31     6     1   ar
    32    32    27   ar
    33    11     7   ar
    34    22    17    1
    35    25    26    1
    36    12    13    1
