@<TRIPOS>MOLECULE
*****
 33 36 0 0 0
SMALL
GASTEIGER

@<TRIPOS>ATOM
      1 C         141.2113  140.6284  168.3091 C.ar    1  UNL1        0.0685
      2 C         140.9231  140.4889  169.7745 C.ar    1  UNL1        0.0885
      3 C         139.5880  139.9802  170.2311 C.ar    1  UNL1        0.1263
      4 N         138.5409  139.6110  169.2224 N.ar    1  UNL1       -0.1633
      5 N         138.8292  139.7506  167.7570 N.ar    1  UNL1       -0.2270
      6 C         138.0000  139.4673  166.5395 C.ar    1  UNL1        0.1005
      7 C         138.8227  139.8009  165.3305 C.ar    1  UNL1        0.0222
      8 C         140.1604  140.2904  165.8007 C.ar    1  UNL1        0.0220
      9 C         140.1644  140.2593  167.3003 C.ar    1  UNL1        0.0961
     10 C         138.3846  139.6684  163.9020 C.ar    1  UNL1        0.0207
     11 C         138.5700  138.3676  163.1783 C.ar    1  UNL1        0.0032
     12 C         138.1319  138.2352  161.7498 C.ar    1  UNL1        0.0207
     13 C         137.5085  139.4033  161.0450 C.ar    1  UNL1        0.0989
     14 N         137.3232  140.7040  161.7687 N.ar    1  UNL1       -0.2423
     15 C         137.7612  140.8365  163.1972 C.ar    1  UNL1        0.0989
     16 C         141.9701  140.8581  170.7833 C.2     1  UNL1        0.2456
     17 N         143.1643  139.9726  170.9830 N.am    1  UNL1       -0.3252
     18 O         141.8229  142.1126  171.5922 O.2     1  UNL1       -0.2703
     19 H         143.2608  139.1492  170.4521 H       1  UNL1        0.1453
     20 H         143.8515  140.2149  171.6451 H       1  UNL1        0.1453
     21 N         142.5465  141.1372  167.8525 N.pl3   1  UNL1       -0.3327
     22 H         142.9903  141.8653  168.3444 H       1  UNL1        0.1468
     23 C         143.3159  142.5006  166.2473 C.3     1  UNL1        0.0029
     24 C         143.7743  141.2939  165.4832 C.3     1  UNL1        0.0282
     25 C         144.2473  142.3038  164.4800 C.3     1  UNL1        0.0029
     26 C         143.2055  140.5364  166.6462 C.3     1  UNL1        0.0702
     27 C         143.4112  139.0726  166.3912 C.3     1  UNL1        0.0208
     28 C         144.1072  138.9255  165.0707 C.3     1  UNL1        0.0160
     29 C         144.3316  140.2984  164.5095 C.3     1  UNL1        0.0404
     30 C         144.6881  141.5163  163.7099 C.3     1  UNL1        0.0156
     31 N         144.9635  139.5574  163.3686 N.3     1  UNL1       -0.3231
     32 H         144.9195  138.5544  163.5486 H       1  UNL1        0.1188
     33 H         145.9381  139.8437  163.2754 H       1  UNL1        0.1188
@<TRIPOS>BOND
     1    23    24    1
     2    24    25    1
     3    24    26    1
     4    26    21    1
     5    21     1    1
     6     1     2   ar
     7     2    16    1
     8    16    17   am
     9    16    18    2
    10     2     3   ar
    11     3     4   ar
    12     4     5   ar
    13     5     6   ar
    14     6     7   ar
    15     7    10    1
    16    10    11   ar
    17    11    12   ar
    18    12    13   ar
    19    13    14   ar
    20    14    15   ar
    21     7     8   ar
    22     8     9   ar
    23    26    27    1
    24    27    28    1
    25    28    29    1
    26    29    30    1
    27    29    31    1
    28    29    24    1
    29     9     1   ar
    30     9     5   ar
    31    15    10   ar
    32    21    22    1
    33    17    19    1
    34    17    20    1
    35    31    32    1
    36    31    33    1
@<TRIPOS>MOLECULE
*****
 33 36 0 0 0
SMALL
GASTEIGER

@<TRIPOS>ATOM
      1 C         138.5451  140.3691  163.0959 C.ar    1  UNL1        0.0685
      2 C         138.4443  139.1390  162.2435 C.ar    1  UNL1        0.0885
      3 C         138.7813  137.7965  162.8212 C.ar    1  UNL1        0.1263
      4 N         139.2193  137.6840  164.2515 N.ar    1  UNL1       -0.1633
      5 N         139.3202  138.9141  165.1039 N.ar    1  UNL1       -0.2270
      6 C         139.7202  139.1128  166.5359 C.ar    1  UNL1        0.1005
      7 C         139.6303  140.5783  166.8431 C.ar    1  UNL1        0.0222
      8 C         139.1748  141.2852  165.6010 C.ar    1  UNL1        0.0220
      9 C         138.9831  140.2567  164.5261 C.ar    1  UNL1        0.0961
     10 C         139.9414  141.2236  168.1610 C.ar    1  UNL1        0.0207
     11 C         140.5364  142.5999  168.2002 C.ar    1  UNL1        0.0032
     12 C         140.8475  143.2451  169.5182 C.ar    1  UNL1        0.0207
     13 C         140.5636  142.5141  170.7968 C.ar    1  UNL1        0.0989
     14 N         139.9686  141.1377  170.7576 N.ar    1  UNL1       -0.2423
     15 C         139.6575  140.4925  169.4396 C.ar    1  UNL1        0.0989
     16 C         138.0063  139.2516  160.8132 C.2     1  UNL1        0.2456
     17 N         136.5492  139.3869  160.4836 N.am    1  UNL1       -0.3252
     18 O         139.0252  139.2288  159.7128 O.2     1  UNL1       -0.2703
     19 H         135.8804  139.4018  161.2059 H       1  UNL1        0.1453
     20 H         136.2617  139.4607  159.5449 H       1  UNL1        0.1453
     21 N         138.2080  141.7117  162.5181 N.pl3   1  UNL1       -0.3327
     22 H         137.2713  142.0133  162.4875 H       1  UNL1        0.1468
     23 C         138.0558  143.9268  162.8310 C.3     1  UNL1        0.0029
     24 C         139.3585  144.0889  162.1051 C.3     1  UNL1        0.0282
     25 C         139.1465  145.5491  162.3750 C.3     1  UNL1        0.0029
     26 C         139.2981  142.5948  161.9870 C.3     1  UNL1        0.0702
     27 C         140.5191  142.1388  161.2446 C.3     1  UNL1        0.0208
     28 C         141.3340  143.3510  160.9039 C.3     1  UNL1        0.0160
     29 C         140.6167  144.5563  161.4357 C.3     1  UNL1        0.0404
     30 C         140.1418  145.9188  161.8455 C.3     1  UNL1        0.0156
     31 N         141.7758  145.3085  160.8519 N.3     1  UNL1       -0.3231
     32 H         142.4228  144.6514  160.4161 H       1  UNL1        0.1188
     33 H         142.2571  145.8193  161.5921 H       1  UNL1        0.1188
@<TRIPOS>BOND
     1    23    24    1
     2    24    25    1
     3    24    26    1
     4    26    21    1
     5    21     1    1
     6     1     2   ar
     7     2    16    1
     8    16    17   am
     9    16    18    2
    10     2     3   ar
    11     3     4   ar
    12     4     5   ar
    13     5     6   ar
    14     6     7   ar
    15     7    10    1
    16    10    11   ar
    17    11    12   ar
    18    12    13   ar
    19    13    14   ar
    20    14    15   ar
    21     7     8   ar
    22     8     9   ar
    23    26    27    1
    24    27    28    1
    25    28    29    1
    26    29    30    1
    27    29    31    1
    28    29    24    1
    29     9     1   ar
    30     9     5   ar
    31    15    10   ar
    32    21    22    1
    33    17    19    1
    34    17    20    1
    35    31    32    1
    36    31    33    1
@<TRIPOS>MOLECULE
*****
 33 36 0 0 0
SMALL
GASTEIGER

@<TRIPOS>ATOM
      1 C         142.2602  140.3570  167.0954 C.ar    1  UNL1        0.0685
      2 C         142.0816  139.9564  168.5298 C.ar    1  UNL1        0.0885
      3 C         141.1098  140.6969  169.3999 C.ar    1  UNL1        0.1263
      4 N         140.3164  141.8381  168.8355 N.ar    1  UNL1       -0.1633
      5 N         140.4950  142.2387  167.4011 N.ar    1  UNL1       -0.2270
      6 C         139.8571  143.3140  166.5724 C.ar    1  UNL1        0.1005
      7 C         140.4348  143.2381  165.1902 C.ar    1  UNL1        0.0222
      8 C         141.4296  142.1158  165.1646 C.ar    1  UNL1        0.0220
      9 C         141.4669  141.4981  166.5310 C.ar    1  UNL1        0.0961
     10 C         140.0798  144.1282  164.0362 C.ar    1  UNL1        0.0207
     11 C         141.1331  144.9843  163.3977 C.ar    1  UNL1        0.0032
     12 C         140.7781  145.8744  162.2437 C.ar    1  UNL1        0.0207
     13 C         139.3699  145.9083  161.7281 C.ar    1  UNL1        0.0989
     14 N         138.3166  145.0522  162.3665 N.ar    1  UNL1       -0.2423
     15 C         138.6716  144.1621  163.5206 C.ar    1  UNL1        0.0989
     16 C         142.8750  138.8153  169.0941 C.2     1  UNL1        0.2456
     17 N         142.9479  138.6144  170.5788 N.am    1  UNL1       -0.3252
     18 O         143.5953  137.8751  168.1739 O.2     1  UNL1       -0.2703
     19 H         142.4751  139.2315  171.1829 H       1  UNL1        0.1453
     20 H         143.4686  137.8655  170.9493 H       1  UNL1        0.1453
     21 N         143.2321  139.6164  166.2253 N.pl3   1  UNL1       -0.3327
     22 H         144.1916  139.6196  166.4457 H       1  UNL1        0.1468
     23 C         144.3651  139.8075  164.2999 C.3     1  UNL1        0.0029
     24 C         143.3728  138.8834  163.6585 C.3     1  UNL1        0.0282
     25 C         144.2111  139.0891  162.4318 C.3     1  UNL1        0.0029
     26 C         142.7420  138.8709  165.0193 C.3     1  UNL1        0.0702
     27 C         141.5350  137.9821  164.9626 C.3     1  UNL1        0.0208
     28 C         141.4199  137.4453  163.5667 C.3     1  UNL1        0.0160
     29 C         142.5558  138.0023  162.7608 C.3     1  UNL1        0.0404
     30 C         143.5649  138.3922  161.7217 C.3     1  UNL1        0.0156
     31 N         141.9497  137.2027  161.6458 N.3     1  UNL1       -0.3231
     32 H         141.1209  136.7163  161.9877 H       1  UNL1        0.1188
     33 H         142.6290  136.5209  161.3080 H       1  UNL1        0.1188
@<TRIPOS>BOND
     1    23    24    1
     2    24    25    1
     3    24    26    1
     4    26    21    1
     5    21     1    1
     6     1     2   ar
     7     2    16    1
     8    16    17   am
     9    16    18    2
    10     2     3   ar
    11     3     4   ar
    12     4     5   ar
    13     5     6   ar
    14     6     7   ar
    15     7    10    1
    16    10    11   ar
    17    11    12   ar
    18    12    13   ar
    19    13    14   ar
    20    14    15   ar
    21     7     8   ar
    22     8     9   ar
    23    26    27    1
    24    27    28    1
    25    28    29    1
    26    29    30    1
    27    29    31    1
    28    29    24    1
    29     9     1   ar
    30     9     5   ar
    31    15    10   ar
    32    21    22    1
    33    17    19    1
    34    17    20    1
    35    31    32    1
    36    31    33    1
@<TRIPOS>MOLECULE
*****
 33 36 0 0 0
SMALL
GASTEIGER

@<TRIPOS>ATOM
      1 C         142.1006  139.7145  163.4760 C.ar    1  UNL1        0.0685
      2 C         141.9360  138.4603  162.6699 C.ar    1  UNL1        0.0885
      3 C         141.1024  137.3318  163.2004 C.ar    1  UNL1        0.1263
      4 N         140.4334  137.4574  164.5371 N.ar    1  UNL1       -0.1633
      5 N         140.5980  138.7116  165.3432 N.ar    1  UNL1       -0.2270
      6 C         140.0635  139.1205  166.6838 C.ar    1  UNL1        0.1005
      7 C         140.5667  140.5017  166.9817 C.ar    1  UNL1        0.0222
      8 C         141.4122  140.9466  165.8254 C.ar    1  UNL1        0.0220
      9 C         141.4316  139.8402  164.8127 C.ar    1  UNL1        0.0961
     10 C         140.2755  141.2984  168.2189 C.ar    1  UNL1        0.0207
     11 C         140.7462  142.7187  168.3244 C.ar    1  UNL1        0.0032
     12 C         140.4550  143.5153  169.5617 C.ar    1  UNL1        0.0207
     13 C         139.6930  142.8917  170.6932 C.ar    1  UNL1        0.0989
     14 N         139.2223  141.4714  170.5877 N.ar    1  UNL1       -0.2423
     15 C         139.5136  140.6748  169.3505 C.ar    1  UNL1        0.0989
     16 C         142.6050  138.3348  161.3332 C.2     1  UNL1        0.2456
     17 N         143.4338  137.1243  161.0201 N.am    1  UNL1       -0.3252
     18 O         142.4453  139.4195  160.3097 O.2     1  UNL1       -0.2703
     19 H         143.5386  136.4124  161.6919 H       1  UNL1        0.1453
     20 H         143.8729  137.0419  160.1429 H       1  UNL1        0.1453
     21 N         142.9342  140.8431  162.9455 N.pl3   1  UNL1       -0.3327
     22 H         143.8521  140.6725  162.6332 H       1  UNL1        0.1468
     23 C         144.0977  142.5226  163.8692 C.3     1  UNL1        0.0029
     24 C         143.0082  143.4664  163.4540 C.3     1  UNL1        0.0282
     25 C         143.8750  144.5037  164.1039 C.3     1  UNL1        0.0029
     26 C         142.3692  142.2316  162.8909 C.3     1  UNL1        0.0702
     27 C         141.0659  142.6291  162.2635 C.3     1  UNL1        0.0208
     28 C         140.8995  144.1095  162.4389 C.3     1  UNL1        0.0160
     29 C         142.0999  144.6269  163.1746 C.3     1  UNL1        0.0404
     30 C         143.1566  145.4217  163.8830 C.3     1  UNL1        0.0156
     31 N         141.4125  145.9536  163.0434 N.3     1  UNL1       -0.3231
     32 H         140.5292  145.8314  162.5482 H       1  UNL1        0.1188
     33 H         142.0091  146.5955  162.5212 H       1  UNL1        0.1188
@<TRIPOS>BOND
     1    23    24    1
     2    24    25    1
     3    24    26    1
     4    26    21    1
     5    21     1    1
     6     1     2   ar
     7     2    16    1
     8    16    17   am
     9    16    18    2
    10     2     3   ar
    11     3     4   ar
    12     4     5   ar
    13     5     6   ar
    14     6     7   ar
    15     7    10    1
    16    10    11   ar
    17    11    12   ar
    18    12    13   ar
    19    13    14   ar
    20    14    15   ar
    21     7     8   ar
    22     8     9   ar
    23    26    27    1
    24    27    28    1
    25    28    29    1
    26    29    30    1
    27    29    31    1
    28    29    24    1
    29     9     1   ar
    30     9     5   ar
    31    15    10   ar
    32    21    22    1
    33    17    19    1
    34    17    20    1
    35    31    32    1
    36    31    33    1
@<TRIPOS>MOLECULE
*****
 33 36 0 0 0
SMALL
GASTEIGER

@<TRIPOS>ATOM
      1 C         141.1356  140.5657  167.4746 C.ar    1  UNL1        0.0685
      2 C         141.3902  140.0852  168.8725 C.ar    1  UNL1        0.0885
      3 C         142.5055  139.1191  169.1420 C.ar    1  UNL1        0.1263
      4 N         143.3663  138.6334  168.0136 N.ar    1  UNL1       -0.1633
      5 N         143.1117  139.1140  166.6157 N.ar    1  UNL1       -0.2270
      6 C         143.7891  138.8127  165.3118 C.ar    1  UNL1        0.1005
      7 C         143.0925  139.5926  164.2364 C.ar    1  UNL1        0.0222
      8 C         141.9845  140.3759  164.8757 C.ar    1  UNL1        0.0220
      9 C         141.9963  140.0802  166.3462 C.ar    1  UNL1        0.0961
     10 C         143.4425  139.5897  162.7778 C.ar    1  UNL1        0.0207
     11 C         143.4881  140.8804  162.0149 C.ar    1  UNL1        0.0032
     12 C         143.8381  140.8774  160.5563 C.ar    1  UNL1        0.0207
     13 C         144.1423  139.5838  159.8605 C.ar    1  UNL1        0.0989
     14 N         144.0966  138.2931  160.6234 N.ar    1  UNL1       -0.2423
     15 C         143.7467  138.2961  162.0821 C.ar    1  UNL1        0.0989
     16 C         140.5295  140.5708  170.0010 C.2     1  UNL1        0.2456
     17 N         140.0197  139.6017  171.0261 N.am    1  UNL1       -0.3252
     18 O         140.1785  142.0254  170.1043 O.2     1  UNL1       -0.2703
     19 H         140.2500  138.6469  170.9583 H       1  UNL1        0.1453
     20 H         139.4547  139.9203  171.7667 H       1  UNL1        0.1453
     21 N         140.0203  141.5319  167.2051 N.pl3   1  UNL1       -0.3327
     22 H         139.8764  142.2978  167.8067 H       1  UNL1        0.1468
     23 C         139.5759  143.2817  165.8754 C.3     1  UNL1        0.0029
     24 C         138.7227  142.3841  165.0291 C.3     1  UNL1        0.0282
     25 C         138.4995  143.6247  164.2162 C.3     1  UNL1        0.0029
     26 C         139.1243  141.3311  166.0190 C.3     1  UNL1        0.0702
     27 C         138.4725  140.0420  165.6145 C.3     1  UNL1        0.0208
     28 C         137.6682  140.2984  164.3747 C.3     1  UNL1        0.0160
     29 C         137.8228  141.7458  164.0129 C.3     1  UNL1        0.0404
     30 C         137.7877  143.1199  163.4124 C.3     1  UNL1        0.0156
     31 N         136.9155  141.3948  162.8711 N.3     1  UNL1       -0.3231
     32 H         136.6713  140.4058  162.9225 H       1  UNL1        0.1188
     33 H         137.3915  141.5821  161.9886 H       1  UNL1        0.1188
@<TRIPOS>BOND
     1    23    24    1
     2    24    25    1
     3    24    26    1
     4    26    21    1
     5    21     1    1
     6     1     2   ar
     7     2    16    1
     8    16    17   am
     9    16    18    2
    10     2     3   ar
    11     3     4   ar
    12     4     5   ar
    13     5     6   ar
    14     6     7   ar
    15     7    10    1
    16    10    11   ar
    17    11    12   ar
    18    12    13   ar
    19    13    14   ar
    20    14    15   ar
    21     7     8   ar
    22     8     9   ar
    23    26    27    1
    24    27    28    1
    25    28    29    1
    26    29    30    1
    27    29    31    1
    28    29    24    1
    29     9     1   ar
    30     9     5   ar
    31    15    10   ar
    32    21    22    1
    33    17    19    1
    34    17    20    1
    35    31    32    1
    36    31    33    1
@<TRIPOS>MOLECULE
*****
 33 36 0 0 0
SMALL
GASTEIGER

@<TRIPOS>ATOM
      1 C         140.2391  140.4372  166.1133 C.ar    1  UNL1        0.0685
      2 C         139.4810  140.0434  167.3462 C.ar    1  UNL1        0.0885
      3 C         138.4068  138.9998  167.2648 C.ar    1  UNL1        0.1263
      4 N         138.0906  138.3497  165.9504 N.ar    1  UNL1       -0.1633
      5 N         138.8487  138.7435  164.7175 N.ar    1  UNL1       -0.2270
      6 C         138.7594  138.2803  163.2936 C.ar    1  UNL1        0.1005
      7 C         139.7785  139.0378  162.4950 C.ar    1  UNL1        0.0222
      8 C         140.4976  139.9691  163.4253 C.ar    1  UNL1        0.0220
      9 C         139.9230  139.7873  164.7989 C.ar    1  UNL1        0.0961
     10 C         140.0337  138.8899  161.0243 C.ar    1  UNL1        0.0207
     11 C         141.4007  138.5142  160.5343 C.ar    1  UNL1        0.0032
     12 C         141.6558  138.3664  159.0636 C.ar    1  UNL1        0.0207
     13 C         140.5440  138.5941  158.0828 C.ar    1  UNL1        0.0989
     14 N         139.1769  138.9697  158.5728 N.ar    1  UNL1       -0.2423
     15 C         138.9218  139.1175  160.0435 C.ar    1  UNL1        0.0989
     16 C         139.7972  140.6935  168.6606 C.2     1  UNL1        0.2456
     17 N         139.7464  139.8898  169.9261 N.am    1  UNL1       -0.3252
     18 O         140.1642  142.1470  168.7095 O.2     1  UNL1       -0.2703
     19 H         139.5055  138.9358  169.8941 H       1  UNL1        0.1453
     20 H         139.9539  140.3164  170.7888 H       1  UNL1        0.1453
     21 N         141.3133  141.4810  166.1947 N.pl3   1  UNL1       -0.3327
     22 H         142.0968  141.3369  166.7732 H       1  UNL1        0.1468
     23 C         143.1670  142.3843  165.3140 C.3     1  UNL1        0.0029
     24 C         142.3225  143.4815  164.7371 C.3     1  UNL1        0.0282
     25 C         143.6277  143.9893  164.2000 C.3     1  UNL1        0.0029
     26 C         141.1938  142.7443  165.3947 C.3     1  UNL1        0.0702
     27 C         139.9246  143.4921  165.1120 C.3     1  UNL1        0.0208
     28 C         140.2689  144.6914  164.2796 C.3     1  UNL1        0.0160
     29 C         141.7509  144.6849  164.0479 C.3     1  UNL1        0.0404
     30 C         143.1756  144.9412  163.6549 C.3     1  UNL1        0.0156
     31 N         141.4771  145.9419  163.2765 N.3     1  UNL1       -0.3231
     32 H         140.4782  146.1463  163.3031 H       1  UNL1        0.1188
     33 H         141.7732  145.8180  162.3084 H       1  UNL1        0.1188
@<TRIPOS>BOND
     1    23    24    1
     2    24    25    1
     3    24    26    1
     4    26    21    1
     5    21     1    1
     6     1     2   ar
     7     2    16    1
     8    16    17   am
     9    16    18    2
    10     2     3   ar
    11     3     4   ar
    12     4     5   ar
    13     5     6   ar
    14     6     7   ar
    15     7    10    1
    16    10    11   ar
    17    11    12   ar
    18    12    13   ar
    19    13    14   ar
    20    14    15   ar
    21     7     8   ar
    22     8     9   ar
    23    26    27    1
    24    27    28    1
    25    28    29    1
    26    29    30    1
    27    29    31    1
    28    29    24    1
    29     9     1   ar
    30     9     5   ar
    31    15    10   ar
    32    21    22    1
    33    17    19    1
    34    17    20    1
    35    31    32    1
    36    31    33    1
@<TRIPOS>MOLECULE
*****
 33 36 0 0 0
SMALL
GASTEIGER

@<TRIPOS>ATOM
      1 C         140.9077  140.3711  166.9918 C.ar    1  UNL1        0.0685
      2 C         141.0354  140.6469  168.4607 C.ar    1  UNL1        0.0885
      3 C         142.0682  141.6158  168.9549 C.ar    1  UNL1        0.1263
      4 N         142.9735  142.3091  167.9802 N.ar    1  UNL1       -0.1633
      5 N         142.8458  142.0333  166.5113 N.ar    1  UNL1       -0.2270
      6 C         143.5920  142.5620  165.3223 C.ar    1  UNL1        0.1005
      7 C         143.0202  141.9197  164.0933 C.ar    1  UNL1        0.0222
      8 C         141.9207  140.9942  164.5226 C.ar    1  UNL1        0.0220
      9 C         141.8129  141.0643  166.0171 C.ar    1  UNL1        0.0961
     10 C         143.4691  142.1608  162.6824 C.ar    1  UNL1        0.0207
     11 C         142.4917  142.6578  161.6589 C.ar    1  UNL1        0.0032
     12 C         142.9407  142.8988  160.2481 C.ar    1  UNL1        0.0207
     13 C         144.3670  142.6428  159.8608 C.ar    1  UNL1        0.0989
     14 N         145.3445  142.1457  160.8843 N.ar    1  UNL1       -0.2423
     15 C         144.8955  141.9048  162.2951 C.ar    1  UNL1        0.0989
     16 C         140.1301  139.9536  169.4354 C.2     1  UNL1        0.2456
     17 N         140.6789  139.4383  170.7327 N.am    1  UNL1       -0.3252
     18 O         138.6761  139.7758  169.1127 O.2     1  UNL1       -0.2703
     19 H         141.6333  139.5550  170.9445 H       1  UNL1        0.1453
     20 H         140.0848  138.9833  171.3724 H       1  UNL1        0.1453
     21 N         139.8748  139.4022  166.4976 N.pl3   1  UNL1       -0.3327
     22 H         139.7047  138.5687  166.9932 H       1  UNL1        0.1468
     23 C         139.7792  137.8495  164.8828 C.3     1  UNL1        0.0029
     24 C         138.9323  138.7862  164.0732 C.3     1  UNL1        0.0282
     25 C         138.9407  137.6734  163.0675 C.3     1  UNL1        0.0029
     26 C         139.1010  139.7032  165.2482 C.3     1  UNL1        0.0702
     27 C         138.3601  140.9740  164.9547 C.3     1  UNL1        0.0208
     28 C         137.7335  140.8424  163.5982 C.3     1  UNL1        0.0160
     29 C         138.0872  139.4903  163.0535 C.3     1  UNL1        0.0404
     30 C         138.2722  138.2303  162.2609 C.3     1  UNL1        0.0156
     31 N         137.2807  139.9309  161.8679 N.3     1  UNL1       -0.3231
     32 H         136.9243  140.8728  162.0303 H       1  UNL1        0.1188
     33 H         136.4988  139.2903  161.7315 H       1  UNL1        0.1188
@<TRIPOS>BOND
     1    23    24    1
     2    24    25    1
     3    24    26    1
     4    26    21    1
     5    21     1    1
     6     1     2   ar
     7     2    16    1
     8    16    17   am
     9    16    18    2
    10     2     3   ar
    11     3     4   ar
    12     4     5   ar
    13     5     6   ar
    14     6     7   ar
    15     7    10    1
    16    10    11   ar
    17    11    12   ar
    18    12    13   ar
    19    13    14   ar
    20    14    15   ar
    21     7     8   ar
    22     8     9   ar
    23    26    27    1
    24    27    28    1
    25    28    29    1
    26    29    30    1
    27    29    31    1
    28    29    24    1
    29     9     1   ar
    30     9     5   ar
    31    15    10   ar
    32    21    22    1
    33    17    19    1
    34    17    20    1
    35    31    32    1
    36    31    33    1
@<TRIPOS>MOLECULE
*****
 33 36 0 0 0
SMALL
GASTEIGER

@<TRIPOS>ATOM
      1 C         139.9438  140.3054  163.6972 C.ar    1  UNL1        0.0685
      2 C         139.0841  139.1680  163.2314 C.ar    1  UNL1        0.0885
      3 C         138.5122  138.2032  164.2273 C.ar    1  UNL1        0.1263
      4 N         138.8001  138.3759  165.6894 N.ar    1  UNL1       -0.1633
      5 N         139.6598  139.5133  166.1553 N.ar    1  UNL1       -0.2270
      6 C         140.1132  139.9345  167.5216 C.ar    1  UNL1        0.1005
      7 C         140.9653  141.1596  167.3700 C.ar    1  UNL1        0.0222
      8 C         141.0386  141.4956  165.9100 C.ar    1  UNL1        0.0220
      9 C         140.2317  140.4781  165.1592 C.ar    1  UNL1        0.0961
     10 C         141.6279  141.9160  168.4831 C.ar    1  UNL1        0.0207
     11 C         143.0680  141.6567  168.8128 C.ar    1  UNL1        0.0032
     12 C         143.7305  142.4131  169.9258 C.ar    1  UNL1        0.0207
     13 C         142.9530  143.4289  170.7092 C.ar    1  UNL1        0.0989
     14 N         141.5128  143.6882  170.3795 N.ar    1  UNL1       -0.2423
     15 C         140.8503  142.9318  169.2664 C.ar    1  UNL1        0.0989
     16 C         138.7963  138.9954  161.7693 C.2     1  UNL1        0.2456
     17 N         137.3861  139.0883  161.2666 N.am    1  UNL1       -0.3252
     18 O         139.9185  138.7299  160.8102 O.2     1  UNL1       -0.2703
     19 H         136.6495  139.2625  161.8961 H       1  UNL1        0.1453
     20 H         137.1971  138.9750  160.3070 H       1  UNL1        0.1453
     21 N         140.5157  141.2702  162.7011 N.pl3   1  UNL1       -0.3327
     22 H         139.9158  141.8375  162.1650 H       1  UNL1        0.1468
     23 C         141.4676  143.3001  162.6671 C.3     1  UNL1        0.0029
     24 C         142.8005  142.6393  162.4756 C.3     1  UNL1        0.0282
     25 C         143.3206  144.0462  162.4692 C.3     1  UNL1        0.0029
     26 C         142.0017  141.3705  162.5220 C.3     1  UNL1        0.0702
     27 C         142.9496  140.2197  162.3578 C.3     1  UNL1        0.0208
     28 C         144.3343  140.7772  162.2099 C.3     1  UNL1        0.0160
     29 C         144.2420  142.2726  162.2827 C.3     1  UNL1        0.0404
     30 C         144.4608  143.7562  162.3166 C.3     1  UNL1        0.0156
     31 N         145.7294  142.2160  162.0969 N.3     1  UNL1       -0.3231
     32 H         146.0258  141.2430  162.0204 H       1  UNL1        0.1188
     33 H         146.1888  142.6494  162.8979 H       1  UNL1        0.1188
@<TRIPOS>BOND
     1    23    24    1
     2    24    25    1
     3    24    26    1
     4    26    21    1
     5    21     1    1
     6     1     2   ar
     7     2    16    1
     8    16    17   am
     9    16    18    2
    10     2     3   ar
    11     3     4   ar
    12     4     5   ar
    13     5     6   ar
    14     6     7   ar
    15     7    10    1
    16    10    11   ar
    17    11    12   ar
    18    12    13   ar
    19    13    14   ar
    20    14    15   ar
    21     7     8   ar
    22     8     9   ar
    23    26    27    1
    24    27    28    1
    25    28    29    1
    26    29    30    1
    27    29    31    1
    28    29    24    1
    29     9     1   ar
    30     9     5   ar
    31    15    10   ar
    32    21    22    1
    33    17    19    1
    34    17    20    1
    35    31    32    1
    36    31    33    1
@<TRIPOS>MOLECULE
*****
 33 36 0 0 0
SMALL
GASTEIGER

@<TRIPOS>ATOM
      1 C         141.3067  140.4919  167.0148 C.ar    1  UNL1        0.0685
      2 C         141.2092  140.7135  168.4952 C.ar    1  UNL1        0.0885
      3 C         140.7230  142.0293  169.0261 C.ar    1  UNL1        0.1263
      4 N         140.3343  143.1238  168.0768 N.ar    1  UNL1       -0.1633
      5 N         140.4318  142.9022  166.5965 N.ar    1  UNL1       -0.2270
      6 C         140.1217  143.7881  165.4264 C.ar    1  UNL1        0.1005
      7 C         140.4162  143.0197  164.1723 C.ar    1  UNL1        0.0222
      8 C         140.9084  141.6589  164.5673 C.ar    1  UNL1        0.0220
      9 C         140.9180  141.5863  166.0655 C.ar    1  UNL1        0.0961
     10 C         140.2481  143.5236  162.7696 C.ar    1  UNL1        0.0207
     11 C         140.5728  142.6315  161.6082 C.ar    1  UNL1        0.0032
     12 C         140.4047  143.1355  160.2054 C.ar    1  UNL1        0.0207
     13 C         139.9118  144.5315  159.9640 C.ar    1  UNL1        0.0989
     14 N         139.5871  145.4236  161.1253 N.ar    1  UNL1       -0.2423
     15 C         139.7552  144.9196  162.5281 C.ar    1  UNL1        0.0989
     16 C         141.5980  139.6191  169.4445 C.2     1  UNL1        0.2456
     17 N         140.7088  139.2815  170.6044 N.am    1  UNL1       -0.3252
     18 O         142.8757  138.8623  169.2339 O.2     1  UNL1       -0.2703
     19 H         139.8701  139.7782  170.7426 H       1  UNL1        0.1453
     20 H         140.9639  138.5632  171.2275 H       1  UNL1        0.1453
     21 N         141.7930  139.1760  166.4839 N.pl3   1  UNL1       -0.3327
     22 H         141.5338  138.3384  166.9317 H       1  UNL1        0.1468
     23 C         141.0874  138.0636  164.6694 C.3     1  UNL1        0.0029
     24 C         142.3628  138.4430  163.9772 C.3     1  UNL1        0.0282
     25 C         141.7849  137.6705  162.8287 C.3     1  UNL1        0.0029
     26 C         142.6741  139.1362  165.2705 C.3     1  UNL1        0.0702
     27 C         144.0211  139.7826  165.1375 C.3     1  UNL1        0.0208
     28 C         144.5423  139.4889  163.7620 C.3     1  UNL1        0.0160
     29 C         143.5174  138.6610  163.0449 C.3     1  UNL1        0.0404
     30 C         142.6982  137.8430  162.0912 C.3     1  UNL1        0.0156
     31 N         144.5008  138.7080  161.9132 N.3     1  UNL1       -0.3231
     32 H         145.3181  139.2492  162.1952 H       1  UNL1        0.1188
     33 H         144.0653  139.1475  161.1023 H       1  UNL1        0.1188
@<TRIPOS>BOND
     1    23    24    1
     2    24    25    1
     3    24    26    1
     4    26    21    1
     5    21     1    1
     6     1     2   ar
     7     2    16    1
     8    16    17   am
     9    16    18    2
    10     2     3   ar
    11     3     4   ar
    12     4     5   ar
    13     5     6   ar
    14     6     7   ar
    15     7    10    1
    16    10    11   ar
    17    11    12   ar
    18    12    13   ar
    19    13    14   ar
    20    14    15   ar
    21     7     8   ar
    22     8     9   ar
    23    26    27    1
    24    27    28    1
    25    28    29    1
    26    29    30    1
    27    29    31    1
    28    29    24    1
    29     9     1   ar
    30     9     5   ar
    31    15    10   ar
    32    21    22    1
    33    17    19    1
    34    17    20    1
    35    31    32    1
    36    31    33    1
