@<TRIPOS>MOLECULE
*****
 37 40 0 0 0
SMALL
GASTEIGER

@<TRIPOS>ATOM
      1 C         138.1169  140.8360  162.8783 C.ar    1  UNL1        0.1534
      2 C         137.5829  139.9767  163.9858 C.ar    1  UNL1        0.0591
      3 C         138.2456  139.9900  165.3314 C.ar    1  UNL1        0.1072
      4 N         137.7116  139.1307  166.4389 N.ar    1  UNL1       -0.1477
      5 N         138.3743  139.1439  167.7845 N.ar    1  UNL1       -0.1421
      6 C         139.5710  140.0164  168.0226 C.ar    1  UNL1        0.1690
      7 C         140.1050  140.8756  166.9151 C.ar    1  UNL1        0.0740
      8 C         139.4423  140.8624  165.5695 C.ar    1  UNL1        0.0359
      9 C         139.9763  141.7216  164.4620 C.ar    1  UNL1        0.0204
     10 C         139.3136  141.7084  163.1164 C.ar    1  UNL1        0.0825
     11 N         139.8476  142.5677  162.0089 N.pl3   1  UNL1       -0.3022
     12 C         140.7651  141.9788  160.9787 C.3     1  UNL1        0.1100
     13 C         141.2992  142.8380  159.8712 C.3     1  UNL1        0.1168
     14 N         140.9157  144.2862  159.7940 N.3     1  UNL1       -0.1559
     15 C         139.9982  144.8750  160.8242 C.3     1  UNL1        0.1168
     16 C         139.4642  144.0157  161.9317 C.3     1  UNL1        0.1100
     17 S         141.4498  145.1454  158.6865 S.O2    1  UNL1        0.0458
     18 C         141.9838  146.0046  157.5790 C.3     1  UNL1        0.1960
     19 O         142.7495  144.3981  158.7336 O.2     1  UNL1       -0.1572
     20 O         140.1500  145.8926  158.6395 O.2     1  UNL1       -0.1572
     21 C         140.2337  140.0296  169.3682 C.2     1  UNL1        0.2635
     22 N         139.4037  139.9335  170.6140 N.am    1  UNL1       -0.3240
     23 O         141.7264  140.1388  169.4681 O.2     1  UNL1       -0.2686
     24 H         138.4240  139.8618  170.5484 H       1  UNL1        0.1453
     25 H         139.8386  139.9421  171.4972 H       1  UNL1        0.1453
     26 C         137.6816  139.6736  160.5959 C.3     1  UNL1        0.2525
     27 O         137.4542  140.8228  161.5327 O.3     1  UNL1       -0.4701
     28 N         141.3017  141.7480  167.1533 N.pl3   1  UNL1       -0.3094
     29 H         141.3241  142.3513  167.9309 H       1  UNL1        0.1523
     30 C         142.4643  141.7012  166.2065 C.ar    1  UNL1        0.0761
     31 C         143.0478  142.9754  165.6718 C.ar    1  UNL1        0.0166
     32 C         144.2103  142.9287  164.7251 C.ar    1  UNL1       -0.0028
     33 C         144.7895  141.6077  164.3131 C.ar    1  UNL1       -0.0195
     34 C         145.9520  141.5610  163.3664 C.3     1  UNL1        0.0311
     35 C         144.2060  140.3335  164.8479 C.ar    1  UNL1        0.0267
     36 C         143.0434  140.3803  165.7946 C.ar    1  UNL1        0.1531
     37 F         142.4600  139.1061  166.3294 F       1  UNL1       -0.2029
@<TRIPOS>BOND
     1    26    27    1
     2    27     1    1
     3     1     2   ar
     4     2     3   ar
     5     3     4   ar
     6     4     5   ar
     7     5     6   ar
     8     6    21    1
     9    21    22   am
    10    21    23    2
    11     6     7   ar
    12     7    28    1
    13    28    30    1
    14    30    31   ar
    15    31    32   ar
    16    32    33   ar
    17    33    34    1
    18    33    35   ar
    19    35    36   ar
    20    36    37    1
    21     7     8   ar
    22     8     9   ar
    23     9    10   ar
    24    10    11    1
    25    11    12    1
    26    12    13    1
    27    13    14    1
    28    14    17    1
    29    17    18    1
    30    17    19    2
    31    17    20    2
    32    14    15    1
    33    15    16    1
    34    10     1   ar
    35    16    11    1
    36     8     3   ar
    37    36    30   ar
    38    22    24    1
    39    22    25    1
    40    28    29    1
@<TRIPOS>MOLECULE
*****
 37 40 0 0 0
SMALL
GASTEIGER

@<TRIPOS>ATOM
      1 C         138.9281  138.1855  164.1329 C.ar    1  UNL1        0.1534
      2 C         138.2309  138.0483  165.4539 C.ar    1  UNL1        0.0591
      3 C         138.6736  138.8746  166.6250 C.ar    1  UNL1        0.1072
      4 N         137.9763  138.7374  167.9460 N.ar    1  UNL1       -0.1477
      5 N         138.4190  139.5638  169.1170 N.ar    1  UNL1       -0.1421
      6 C         139.5588  140.5273  168.9670 C.ar    1  UNL1        0.1690
      7 C         140.2560  140.6644  167.6460 C.ar    1  UNL1        0.0740
      8 C         139.8134  139.8381  166.4750 C.ar    1  UNL1        0.0359
      9 C         140.5105  139.9752  165.1540 C.ar    1  UNL1        0.0204
     10 C         140.0679  139.1489  163.9829 C.ar    1  UNL1        0.0825
     11 N         140.7651  139.2861  162.6619 N.pl3   1  UNL1       -0.3022
     12 C         140.5503  140.5117  161.8242 C.3     1  UNL1        0.1100
     13 C         141.2475  140.6490  160.5032 C.3     1  UNL1        0.1168
     14 N         142.1595  139.5605  160.0198 N.3     1  UNL1       -0.1559
     15 C         142.3743  138.3349  160.8575 C.3     1  UNL1        0.1168
     16 C         141.6771  138.1977  162.1786 C.3     1  UNL1        0.1100
     17 S         142.8567  139.6978  158.6988 S.O2    1  UNL1        0.0458
     18 C         143.5539  139.8350  157.3778 C.3     1  UNL1        0.1960
     19 O         141.5673  140.1251  158.0627 O.2     1  UNL1       -0.1572
     20 O         144.1461  139.2704  159.3350 O.2     1  UNL1       -0.1572
     21 C         140.0015  141.3536  170.1380 C.2     1  UNL1        0.2635
     22 N         140.4417  140.6830  171.4055 N.am    1  UNL1       -0.3240
     23 O         140.0039  142.8504  170.0415 O.2     1  UNL1       -0.2686
     24 H         140.4401  139.7005  171.4688 H       1  UNL1        0.1453
     25 H         140.7322  141.2253  172.1741 H       1  UNL1        0.1453
     26 C         137.7647  138.0066  161.8168 C.3     1  UNL1        0.2525
     27 O         138.4855  137.3591  162.9619 O.3     1  UNL1       -0.4701
     28 N         141.3958  141.6279  167.4960 N.pl3   1  UNL1       -0.3094
     29 H         142.1344  141.6217  168.1468 H       1  UNL1        0.1523
     30 C         141.4102  142.6008  166.3544 C.ar    1  UNL1        0.0761
     31 C         140.1697  143.3703  166.0091 C.ar    1  UNL1        0.0166
     32 C         140.1841  144.3432  164.8675 C.ar    1  UNL1       -0.0028
     33 C         141.4389  144.5467  164.0712 C.ar    1  UNL1       -0.0195
     34 C         141.4532  145.5196  162.9296 C.3     1  UNL1        0.0311
     35 C         142.6793  143.7772  164.4164 C.ar    1  UNL1        0.0267
     36 C         142.6649  142.8043  165.5581 C.ar    1  UNL1        0.1531
     37 F         143.9054  142.0348  165.9034 F       1  UNL1       -0.2029
@<TRIPOS>BOND
     1    26    27    1
     2    27     1    1
     3     1     2   ar
     4     2     3   ar
     5     3     4   ar
     6     4     5   ar
     7     5     6   ar
     8     6    21    1
     9    21    22   am
    10    21    23    2
    11     6     7   ar
    12     7    28    1
    13    28    30    1
    14    30    31   ar
    15    31    32   ar
    16    32    33   ar
    17    33    34    1
    18    33    35   ar
    19    35    36   ar
    20    36    37    1
    21     7     8   ar
    22     8     9   ar
    23     9    10   ar
    24    10    11    1
    25    11    12    1
    26    12    13    1
    27    13    14    1
    28    14    17    1
    29    17    18    1
    30    17    19    2
    31    17    20    2
    32    14    15    1
    33    15    16    1
    34    10     1   ar
    35    16    11    1
    36     8     3   ar
    37    36    30   ar
    38    22    24    1
    39    22    25    1
    40    28    29    1
@<TRIPOS>MOLECULE
*****
 37 40 0 0 0
SMALL
GASTEIGER

@<TRIPOS>ATOM
      1 C         139.4737  138.2522  162.4576 C.ar    1  UNL1        0.1534
      2 C         139.3283  138.0547  160.9778 C.ar    1  UNL1        0.0591
      3 C         139.0060  139.2226  160.0934 C.ar    1  UNL1        0.1072
      4 N         138.8607  139.0250  158.6135 N.ar    1  UNL1       -0.1477
      5 N         138.5384  140.1929  157.7290 N.ar    1  UNL1       -0.1421
      6 C         138.3614  141.5583  158.3244 C.ar    1  UNL1        0.1690
      7 C         138.5068  141.7558  159.8042 C.ar    1  UNL1        0.0740
      8 C         138.8291  140.5879  160.6887 C.ar    1  UNL1        0.0359
      9 C         138.9744  140.7854  162.1685 C.ar    1  UNL1        0.0204
     10 C         139.2967  139.6176  163.0529 C.ar    1  UNL1        0.0825
     11 N         139.4420  139.8151  164.5328 N.pl3   1  UNL1       -0.3022
     12 C         140.6275  140.5551  165.0778 C.3     1  UNL1        0.1100
     13 C         140.7729  140.7527  166.5576 C.3     1  UNL1        0.1168
     14 N         139.7327  140.2103  167.4924 N.3     1  UNL1       -0.1559
     15 C         138.5472  139.4703  166.9474 C.3     1  UNL1        0.1168
     16 C         138.4019  139.2728  165.4676 C.3     1  UNL1        0.1100
     17 S         139.8781  140.4078  168.9722 S.O2    1  UNL1        0.0458
     18 C         140.0235  140.6054  170.4520 C.3     1  UNL1        0.1960
     19 O         141.1399  141.1861  168.7443 O.2     1  UNL1       -0.1572
     20 O         138.6163  139.6296  169.2001 O.2     1  UNL1       -0.1572
     21 C         138.0391  142.7261  157.4400 C.2     1  UNL1        0.2635
     22 N         136.7610  142.7422  156.6550 N.am    1  UNL1       -0.3240
     23 O         138.9949  143.8778  157.3405 O.2     1  UNL1       -0.2686
     24 H         136.1336  141.9863  156.7203 H       1  UNL1        0.1453
     25 H         136.5494  143.5087  156.0745 H       1  UNL1        0.1453
     26 C         141.1693  136.9445  163.9288 C.3     1  UNL1        0.2525
     27 O         139.7960  137.0844  163.3421 O.3     1  UNL1       -0.4701
     28 N         138.3298  143.1211  160.3996 N.pl3   1  UNL1       -0.3094
     29 H         137.5070  143.6321  160.2233 H       1  UNL1        0.1523
     30 C         139.4065  143.7079  161.2635 C.ar    1  UNL1        0.0761
     31 C         140.8378  143.6555  160.8176 C.ar    1  UNL1        0.0166
     32 C         141.9144  144.2423  161.6815 C.ar    1  UNL1       -0.0028
     33 C         141.5599  144.8815  162.9914 C.ar    1  UNL1       -0.0195
     34 C         142.6366  145.4683  163.8553 C.3     1  UNL1        0.0311
     35 C         140.1287  144.9340  163.4374 C.ar    1  UNL1        0.0267
     36 C         139.0520  144.3471  162.5734 C.ar    1  UNL1        0.1531
     37 F         137.6208  144.3995  163.0193 F       1  UNL1       -0.2029
@<TRIPOS>BOND
     1    26    27    1
     2    27     1    1
     3     1     2   ar
     4     2     3   ar
     5     3     4   ar
     6     4     5   ar
     7     5     6   ar
     8     6    21    1
     9    21    22   am
    10    21    23    2
    11     6     7   ar
    12     7    28    1
    13    28    30    1
    14    30    31   ar
    15    31    32   ar
    16    32    33   ar
    17    33    34    1
    18    33    35   ar
    19    35    36   ar
    20    36    37    1
    21     7     8   ar
    22     8     9   ar
    23     9    10   ar
    24    10    11    1
    25    11    12    1
    26    12    13    1
    27    13    14    1
    28    14    17    1
    29    17    18    1
    30    17    19    2
    31    17    20    2
    32    14    15    1
    33    15    16    1
    34    10     1   ar
    35    16    11    1
    36     8     3   ar
    37    36    30   ar
    38    22    24    1
    39    22    25    1
    40    28    29    1
@<TRIPOS>MOLECULE
*****
 37 40 0 0 0
SMALL
GASTEIGER

@<TRIPOS>ATOM
      1 C         138.6572  140.7520  162.4616 C.ar    1  UNL1        0.1534
      2 C         138.1712  141.1754  161.1071 C.ar    1  UNL1        0.0591
      3 C         138.8494  142.3020  160.3854 C.ar    1  UNL1        0.1072
      4 N         138.3634  142.7254  159.0309 N.ar    1  UNL1       -0.1477
      5 N         139.0415  143.8521  158.3092 N.ar    1  UNL1       -0.1421
      6 C         140.2057  144.5553  158.9420 C.ar    1  UNL1        0.1690
      7 C         140.6916  144.1319  160.2965 C.ar    1  UNL1        0.0740
      8 C         140.0135  143.0052  161.0182 C.ar    1  UNL1        0.0359
      9 C         140.4994  142.5818  162.3726 C.ar    1  UNL1        0.0204
     10 C         139.8212  141.4552  163.0943 C.ar    1  UNL1        0.0825
     11 N         140.3072  141.0318  164.4488 N.pl3   1  UNL1       -0.3022
     12 C         139.6479  141.5697  165.6841 C.3     1  UNL1        0.1100
     13 C         140.1338  141.1464  167.0385 C.3     1  UNL1        0.1168
     14 N         141.2792  140.1851  167.1578 N.3     1  UNL1       -0.1559
     15 C         141.9385  139.6472  165.9225 C.3     1  UNL1        0.1168
     16 C         141.4525  140.0706  164.5680 C.3     1  UNL1        0.1100
     17 S         141.7651  139.7617  168.5122 S.O2    1  UNL1        0.0458
     18 C         142.2510  139.3384  169.8667 C.3     1  UNL1        0.1960
     19 O         143.0298  139.2415  167.8959 O.2     1  UNL1       -0.1572
     20 O         140.5004  140.2819  169.1286 O.2     1  UNL1       -0.1572
     21 C         140.8838  145.6819  158.2203 C.2     1  UNL1        0.2635
     22 N         140.0740  146.6442  157.4029 N.am    1  UNL1       -0.3240
     23 O         142.3717  145.8462  158.3160 O.2     1  UNL1       -0.2686
     24 H         139.0974  146.5364  157.3400 H       1  UNL1        0.1453
     25 H         140.5191  147.3837  156.9292 H       1  UNL1        0.1453
     26 C         138.4832  138.2216  163.0245 C.3     1  UNL1        0.2525
     27 O         137.9790  139.6254  163.1833 O.3     1  UNL1       -0.4701
     28 N         141.8557  144.8351  160.9292 N.pl3   1  UNL1       -0.3094
     29 H         141.9284  145.8153  160.8730 H       1  UNL1        0.1523
     30 C         142.9090  144.0448  161.6476 C.ar    1  UNL1        0.0761
     31 C         143.6581  142.9639  160.9261 C.ar    1  UNL1        0.0166
     32 C         144.7114  142.1736  161.6444 C.ar    1  UNL1       -0.0028
     33 C         145.0157  142.4643  163.0842 C.ar    1  UNL1       -0.0195
     34 C         146.0691  141.6741  163.8025 C.3     1  UNL1        0.0311
     35 C         144.2667  143.5453  163.8057 C.ar    1  UNL1        0.0267
     36 C         143.2133  144.3355  163.0873 C.ar    1  UNL1        0.1531
     37 F         142.4643  145.4165  163.8087 F       1  UNL1       -0.2029
@<TRIPOS>BOND
     1    26    27    1
     2    27     1    1
     3     1     2   ar
     4     2     3   ar
     5     3     4   ar
     6     4     5   ar
     7     5     6   ar
     8     6    21    1
     9    21    22   am
    10    21    23    2
    11     6     7   ar
    12     7    28    1
    13    28    30    1
    14    30    31   ar
    15    31    32   ar
    16    32    33   ar
    17    33    34    1
    18    33    35   ar
    19    35    36   ar
    20    36    37    1
    21     7     8   ar
    22     8     9   ar
    23     9    10   ar
    24    10    11    1
    25    11    12    1
    26    12    13    1
    27    13    14    1
    28    14    17    1
    29    17    18    1
    30    17    19    2
    31    17    20    2
    32    14    15    1
    33    15    16    1
    34    10     1   ar
    35    16    11    1
    36     8     3   ar
    37    36    30   ar
    38    22    24    1
    39    22    25    1
    40    28    29    1
@<TRIPOS>MOLECULE
*****
 37 40 0 0 0
SMALL
GASTEIGER

@<TRIPOS>ATOM
      1 C         143.8244  142.1314  164.4669 C.ar    1  UNL1        0.1534
      2 C         143.7909  142.6127  165.8872 C.ar    1  UNL1        0.0591
      3 C         142.8198  142.0121  166.8600 C.ar    1  UNL1        0.1072
      4 N         142.7863  142.4935  168.2803 N.ar    1  UNL1       -0.1477
      5 N         141.8152  141.8928  169.2530 N.ar    1  UNL1       -0.1421
      6 C         140.8777  140.8108  168.8055 C.ar    1  UNL1        0.1690
      7 C         140.9112  140.3295  167.3852 C.ar    1  UNL1        0.0740
      8 C         141.8823  140.9301  166.4125 C.ar    1  UNL1        0.0359
      9 C         141.9158  140.4488  164.9922 C.ar    1  UNL1        0.0204
     10 C         142.8868  141.0494  164.0195 C.ar    1  UNL1        0.0825
     11 N         142.9203  140.5681  162.5991 N.pl3   1  UNL1       -0.3022
     12 C         141.8873  141.0442  161.6213 C.3     1  UNL1        0.1100
     13 C         141.9207  140.5629  160.2011 C.3     1  UNL1        0.1168
     14 N         142.9873  139.6053  159.7586 N.3     1  UNL1       -0.1559
     15 C         144.0203  139.1292  160.7364 C.3     1  UNL1        0.1168
     16 C         143.9868  139.6106  162.1567 C.3     1  UNL1        0.1100
     17 S         143.0207  139.1240  158.3383 S.O2    1  UNL1        0.0458
     18 C         143.0542  138.6427  156.9181 C.3     1  UNL1        0.1960
     19 O         141.7274  138.3956  158.5547 O.2     1  UNL1       -0.1572
     20 O         144.3140  139.8524  158.1219 O.2     1  UNL1       -0.1572
     21 C         139.9066  140.2101  169.7782 C.2     1  UNL1        0.2635
     22 N         140.2830  140.0693  171.2234 N.am    1  UNL1       -0.3240
     23 O         138.5593  139.7504  169.3058 O.2     1  UNL1       -0.2686
     24 H         141.1673  140.3710  171.5335 H       1  UNL1        0.1453
     25 H         139.6456  139.6750  171.8619 H       1  UNL1        0.1453
     26 C         144.3653  143.8614  162.6057 C.3     1  UNL1        0.2525
     27 O         144.7954  142.7321  163.4942 O.3     1  UNL1       -0.4701
     28 N         139.9737  139.2475  166.9377 N.pl3   1  UNL1       -0.3094
     29 H         139.7568  138.5024  167.5436 H       1  UNL1        0.1523
     30 C         139.3665  139.3007  165.5671 C.ar    1  UNL1        0.0761
     31 C         138.5093  140.4662  165.1712 C.ar    1  UNL1        0.0166
     32 C         137.9022  140.5195  163.8007 C.ar    1  UNL1       -0.0028
     33 C         138.1522  139.4071  162.8258 C.ar    1  UNL1       -0.0195
     34 C         137.5451  139.4603  161.4553 C.3     1  UNL1        0.0311
     35 C         139.0094  138.2415  163.2217 C.ar    1  UNL1        0.0267
     36 C         139.6165  138.1883  164.5923 C.ar    1  UNL1        0.1531
     37 F         140.4737  137.0228  164.9882 F       1  UNL1       -0.2029
@<TRIPOS>BOND
     1    26    27    1
     2    27     1    1
     3     1     2   ar
     4     2     3   ar
     5     3     4   ar
     6     4     5   ar
     7     5     6   ar
     8     6    21    1
     9    21    22   am
    10    21    23    2
    11     6     7   ar
    12     7    28    1
    13    28    30    1
    14    30    31   ar
    15    31    32   ar
    16    32    33   ar
    17    33    34    1
    18    33    35   ar
    19    35    36   ar
    20    36    37    1
    21     7     8   ar
    22     8     9   ar
    23     9    10   ar
    24    10    11    1
    25    11    12    1
    26    12    13    1
    27    13    14    1
    28    14    17    1
    29    17    18    1
    30    17    19    2
    31    17    20    2
    32    14    15    1
    33    15    16    1
    34    10     1   ar
    35    16    11    1
    36     8     3   ar
    37    36    30   ar
    38    22    24    1
    39    22    25    1
    40    28    29    1
@<TRIPOS>MOLECULE
*****
 37 40 0 0 0
SMALL
GASTEIGER

@<TRIPOS>ATOM
      1 C         144.1912  139.8276  162.8975 C.ar    1  UNL1        0.1534
      2 C         144.3794  139.5398  161.4375 C.ar    1  UNL1        0.0591
      3 C         143.1872  139.2866  160.5631 C.ar    1  UNL1        0.1072
      4 N         143.3755  138.9988  159.1030 N.ar    1  UNL1       -0.1477
      5 N         142.1833  138.7456  158.2287 N.ar    1  UNL1       -0.1421
      6 C         140.8028  138.7801  158.8144 C.ar    1  UNL1        0.1690
      7 C         140.6145  139.0679  160.2744 C.ar    1  UNL1        0.0740
      8 C         141.8067  139.3211  161.1488 C.ar    1  UNL1        0.0359
      9 C         141.6185  139.6089  162.6088 C.ar    1  UNL1        0.0204
     10 C         142.8107  139.8621  163.4831 C.ar    1  UNL1        0.0825
     11 N         142.6224  140.1499  164.9432 N.pl3   1  UNL1       -0.3022
     12 C         142.8566  139.0694  165.9569 C.3     1  UNL1        0.1100
     13 C         142.6683  139.3571  167.4169 C.3     1  UNL1        0.1168
     14 N         142.2458  140.7254  167.8634 N.3     1  UNL1       -0.1559
     15 C         142.0116  141.8060  166.8497 C.3     1  UNL1        0.1168
     16 C         142.1999  141.5182  165.3896 C.3     1  UNL1        0.1100
     17 S         142.0575  141.0132  169.3234 S.O2    1  UNL1        0.0458
     18 C         141.8692  141.3009  170.7834 C.3     1  UNL1        0.1960
     19 O         143.1231  140.0120  169.6581 O.2     1  UNL1       -0.1572
     20 O         140.9919  142.0143  168.9887 O.2     1  UNL1       -0.1572
     21 C         139.6106  138.5269  157.9400 C.2     1  UNL1        0.2635
     22 N         139.5589  137.2995  157.0793 N.am    1  UNL1       -0.3240
     23 O         138.4701  139.5011  157.9264 O.2     1  UNL1       -0.2686
     24 H         140.3075  136.6601  157.0883 H       1  UNL1        0.1453
     25 H         138.7764  137.1333  156.5054 H       1  UNL1        0.1453
     26 C         145.9083  141.4760  163.9387 C.3     1  UNL1        0.2525
     27 O         145.3834  140.0808  163.7718 O.3     1  UNL1       -0.4701
     28 N         139.2340  139.1025  160.8601 N.pl3   1  UNL1       -0.3094
     29 H         138.6413  138.3217  160.7696 H       1  UNL1        0.1523
     30 C         138.7567  140.3268  161.5836 C.ar    1  UNL1        0.0761
     31 C         138.8028  141.6641  160.9059 C.ar    1  UNL1        0.0166
     32 C         138.3255  142.8884  161.6293 C.ar    1  UNL1       -0.0028
     33 C         137.8020  142.7753  163.0305 C.ar    1  UNL1       -0.0195
     34 C         137.3246  143.9995  163.7539 C.3     1  UNL1        0.0311
     35 C         137.7558  141.4379  163.7082 C.ar    1  UNL1        0.0267
     36 C         138.2332  140.2136  162.9847 C.ar    1  UNL1        0.1531
     37 F         138.1871  138.8762  163.6624 F       1  UNL1       -0.2029
@<TRIPOS>BOND
     1    26    27    1
     2    27     1    1
     3     1     2   ar
     4     2     3   ar
     5     3     4   ar
     6     4     5   ar
     7     5     6   ar
     8     6    21    1
     9    21    22   am
    10    21    23    2
    11     6     7   ar
    12     7    28    1
    13    28    30    1
    14    30    31   ar
    15    31    32   ar
    16    32    33   ar
    17    33    34    1
    18    33    35   ar
    19    35    36   ar
    20    36    37    1
    21     7     8   ar
    22     8     9   ar
    23     9    10   ar
    24    10    11    1
    25    11    12    1
    26    12    13    1
    27    13    14    1
    28    14    17    1
    29    17    18    1
    30    17    19    2
    31    17    20    2
    32    14    15    1
    33    15    16    1
    34    10     1   ar
    35    16    11    1
    36     8     3   ar
    37    36    30   ar
    38    22    24    1
    39    22    25    1
    40    28    29    1
@<TRIPOS>MOLECULE
*****
 37 40 0 0 0
SMALL
GASTEIGER

@<TRIPOS>ATOM
      1 C         143.7416  139.8944  163.2367 C.ar    1  UNL1        0.1534
      2 C         144.1375  138.9528  164.3352 C.ar    1  UNL1        0.0591
      3 C         143.5609  139.1192  165.7098 C.ar    1  UNL1        0.1072
      4 N         143.9568  138.1775  166.8083 N.ar    1  UNL1       -0.1477
      5 N         143.3801  138.3439  168.1830 N.ar    1  UNL1       -0.1421
      6 C         142.4075  139.4520  168.4592 C.ar    1  UNL1        0.1690
      7 C         142.0116  140.3936  167.3608 C.ar    1  UNL1        0.0740
      8 C         142.5883  140.2272  165.9861 C.ar    1  UNL1        0.0359
      9 C         142.1924  141.1688  164.8877 C.ar    1  UNL1        0.0204
     10 C         142.7691  141.0024  163.5130 C.ar    1  UNL1        0.0825
     11 N         142.3731  141.9441  162.4145 N.pl3   1  UNL1       -0.3022
     12 C         141.5606  141.4460  161.2562 C.3     1  UNL1        0.1100
     13 C         141.1647  142.3875  160.1578 C.3     1  UNL1        0.1168
     14 N         141.5812  143.8274  160.2176 N.3     1  UNL1       -0.1559
     15 C         142.3937  144.3255  161.3760 C.3     1  UNL1        0.1168
     16 C         142.7896  143.3838  162.4744 C.3     1  UNL1        0.1100
     17 S         141.1853  144.7690  159.1192 S.O2    1  UNL1        0.0458
     18 C         140.7893  145.7105  158.0208 C.3     1  UNL1        0.1960
     19 O         139.8101  144.8779  159.7083 O.2     1  UNL1       -0.1572
     20 O         142.5604  144.6600  158.5301 O.2     1  UNL1       -0.1572
     21 C         141.8309  139.6185  169.8339 C.2     1  UNL1        0.2635
     22 N         142.7384  139.8579  171.0040 N.am    1  UNL1       -0.3240
     23 O         140.3467  139.5455  170.0385 O.2     1  UNL1       -0.2686
     24 H         143.7125  139.9058  170.8697 H       1  UNL1        0.1453
     25 H         142.3600  139.9671  171.9063 H       1  UNL1        0.1453
     26 C         143.9469  138.5348  161.0323 C.3     1  UNL1        0.2525
     27 O         144.3183  139.7280  161.8620 O.3     1  UNL1       -0.4701
     28 N         141.0391  141.5017  167.6370 N.pl3   1  UNL1       -0.3094
     29 H         140.9932  141.9040  168.5344 H       1  UNL1        0.1523
     30 C         140.1364  141.9967  166.5460 C.ar    1  UNL1        0.0761
     31 C         140.2017  143.4309  166.1116 C.ar    1  UNL1        0.0166
     32 C         139.2991  143.9260  165.0207 C.ar    1  UNL1       -0.0028
     33 C         138.3311  142.9868  164.3641 C.ar    1  UNL1       -0.0195
     34 C         137.4285  143.4818  163.2732 C.3     1  UNL1        0.0311
     35 C         138.2658  141.5526  164.7985 C.ar    1  UNL1        0.0267
     36 C         139.1685  141.0575  165.8895 C.ar    1  UNL1        0.1531
     37 F         139.1032  139.6233  166.3239 F       1  UNL1       -0.2029
@<TRIPOS>BOND
     1    26    27    1
     2    27     1    1
     3     1     2   ar
     4     2     3   ar
     5     3     4   ar
     6     4     5   ar
     7     5     6   ar
     8     6    21    1
     9    21    22   am
    10    21    23    2
    11     6     7   ar
    12     7    28    1
    13    28    30    1
    14    30    31   ar
    15    31    32   ar
    16    32    33   ar
    17    33    34    1
    18    33    35   ar
    19    35    36   ar
    20    36    37    1
    21     7     8   ar
    22     8     9   ar
    23     9    10   ar
    24    10    11    1
    25    11    12    1
    26    12    13    1
    27    13    14    1
    28    14    17    1
    29    17    18    1
    30    17    19    2
    31    17    20    2
    32    14    15    1
    33    15    16    1
    34    10     1   ar
    35    16    11    1
    36     8     3   ar
    37    36    30   ar
    38    22    24    1
    39    22    25    1
    40    28    29    1
@<TRIPOS>MOLECULE
*****
 37 40 0 0 0
SMALL
GASTEIGER

@<TRIPOS>ATOM
      1 C         143.4165  143.4098  164.3497 C.ar    1  UNL1        0.1534
      2 C         143.9396  143.2100  165.7412 C.ar    1  UNL1        0.0591
      3 C         143.0696  142.5759  166.7857 C.ar    1  UNL1        0.1072
      4 N         143.5928  142.3761  168.1773 N.ar    1  UNL1       -0.1477
      5 N         142.7227  141.7421  169.2218 N.ar    1  UNL1       -0.1421
      6 C         141.3294  141.3079  168.8748 C.ar    1  UNL1        0.1690
      7 C         140.8063  141.5077  167.4833 C.ar    1  UNL1        0.0740
      8 C         141.6764  142.1418  166.4387 C.ar    1  UNL1        0.0359
      9 C         141.1533  142.3416  165.0472 C.ar    1  UNL1        0.0204
     10 C         142.0233  142.9756  164.0027 C.ar    1  UNL1        0.0825
     11 N         141.5001  143.1754  162.6111 N.pl3   1  UNL1       -0.3022
     12 C         141.3320  141.9982  161.6969 C.3     1  UNL1        0.1100
     13 C         140.8088  142.1979  160.3054 C.3     1  UNL1        0.1168
     14 N         140.4538  143.5750  159.8280 N.3     1  UNL1       -0.1559
     15 C         140.6219  144.7522  160.7423 C.3     1  UNL1        0.1168
     16 C         141.1451  144.5524  162.1339 C.3     1  UNL1        0.1100
     17 S         139.9306  143.7747  158.4365 S.O2    1  UNL1        0.0458
     18 C         139.4074  143.9745  157.0450 C.3     1  UNL1        0.1960
     19 O         138.6089  143.1991  158.8508 O.2     1  UNL1       -0.1572
     20 O         141.2523  144.3504  158.0223 O.2     1  UNL1       -0.1572
     21 C         140.4594  140.6739  169.9193 C.2     1  UNL1        0.2635
     22 N         140.8863  139.3942  170.5752 N.am    1  UNL1       -0.3240
     23 O         139.1625  141.3195  170.3079 O.2     1  UNL1       -0.2686
     24 H         141.7375  138.9704  170.3201 H       1  UNL1        0.1453
     25 H         140.3153  138.9780  171.2607 H       1  UNL1        0.1453
     26 C         144.8135  143.2206  162.1674 C.3     1  UNL1        0.2525
     27 O         144.2866  144.0438  163.3052 O.3     1  UNL1       -0.4701
     28 N         139.4131  141.0736  167.1363 N.pl3   1  UNL1       -0.3094
     29 H         138.6608  141.3191  167.7219 H       1  UNL1        0.1523
     30 C         139.1662  140.2652  165.8970 C.ar    1  UNL1        0.0761
     31 C         139.7851  138.9066  165.7520 C.ar    1  UNL1        0.0166
     32 C         139.5382  138.0983  164.5129 C.ar    1  UNL1       -0.0028
     33 C         138.6723  138.6486  163.4185 C.ar    1  UNL1       -0.0195
     34 C         138.4254  137.8403  162.1794 C.3     1  UNL1        0.0311
     35 C         138.0534  140.0072  163.5635 C.ar    1  UNL1        0.0267
     36 C         138.3003  140.8156  164.8028 C.ar    1  UNL1        0.1531
     37 F         137.6814  142.1742  164.9477 F       1  UNL1       -0.2029
@<TRIPOS>BOND
     1    26    27    1
     2    27     1    1
     3     1     2   ar
     4     2     3   ar
     5     3     4   ar
     6     4     5   ar
     7     5     6   ar
     8     6    21    1
     9    21    22   am
    10    21    23    2
    11     6     7   ar
    12     7    28    1
    13    28    30    1
    14    30    31   ar
    15    31    32   ar
    16    32    33   ar
    17    33    34    1
    18    33    35   ar
    19    35    36   ar
    20    36    37    1
    21     7     8   ar
    22     8     9   ar
    23     9    10   ar
    24    10    11    1
    25    11    12    1
    26    12    13    1
    27    13    14    1
    28    14    17    1
    29    17    18    1
    30    17    19    2
    31    17    20    2
    32    14    15    1
    33    15    16    1
    34    10     1   ar
    35    16    11    1
    36     8     3   ar
    37    36    30   ar
    38    22    24    1
    39    22    25    1
    40    28    29    1
@<TRIPOS>MOLECULE
*****
 37 40 0 0 0
SMALL
GASTEIGER

@<TRIPOS>ATOM
      1 C         142.9055  138.5792  163.2864 C.ar    1  UNL1        0.1534
      2 C         143.5525  138.3823  164.6253 C.ar    1  UNL1        0.0591
      3 C         142.8691  138.8716  165.8677 C.ar    1  UNL1        0.1072
      4 N         143.5162  138.6747  167.2067 N.ar    1  UNL1       -0.1477
      5 N         142.8328  139.1639  168.4491 N.ar    1  UNL1       -0.1421
      6 C         141.5024  139.8501  168.3526 C.ar    1  UNL1        0.1690
      7 C         140.8554  140.0469  167.0138 C.ar    1  UNL1        0.0740
      8 C         141.5388  139.5577  165.7713 C.ar    1  UNL1        0.0359
      9 C         140.8918  139.7546  164.4325 C.ar    1  UNL1        0.0204
     10 C         141.5751  139.2653  163.1900 C.ar    1  UNL1        0.0825
     11 N         140.9281  139.4622  161.8511 N.pl3   1  UNL1       -0.3022
     12 C         140.9748  140.8058  161.1859 C.3     1  UNL1        0.1100
     13 C         140.3278  141.0028  159.8470 C.3     1  UNL1        0.1168
     14 N         139.6340  139.8561  159.1734 N.3     1  UNL1       -0.1559
     15 C         139.5872  138.5125  159.8386 C.3     1  UNL1        0.1168
     16 C         140.2343  138.3156  161.1775 C.3     1  UNL1        0.1100
     17 S         138.9870  140.0530  157.8345 S.O2    1  UNL1        0.0458
     18 C         138.3399  140.2500  156.4957 C.3     1  UNL1        0.1960
     19 O         137.6429  140.1316  158.4956 O.2     1  UNL1       -0.1572
     20 O         140.3311  139.9744  157.1734 O.2     1  UNL1       -0.1572
     21 C         140.8190  140.3393  169.5951 C.2     1  UNL1        0.2635
     22 N         140.6380  139.4170  170.7642 N.am    1  UNL1       -0.3240
     23 O         140.3167  141.7508  169.6684 O.2     1  UNL1       -0.2686
     24 H         140.9677  138.4906  170.7160 H       1  UNL1        0.1453
     25 H         140.1895  139.7381  171.5796 H       1  UNL1        0.1453
     26 C         144.2374  139.0682  161.1100 C.3     1  UNL1        0.2525
     27 O         143.5888  138.0900  162.0440 O.3     1  UNL1       -0.4701
     28 N         139.5250  140.7331  166.9173 N.pl3   1  UNL1       -0.3094
     29 H         138.7920  140.4727  167.5208 H       1  UNL1        0.1523
     30 C         139.3114  141.8158  165.9014 C.ar    1  UNL1        0.0761
     31 C         140.0964  143.0911  165.9882 C.ar    1  UNL1        0.0166
     32 C         139.8829  144.1739  164.9724 C.ar    1  UNL1       -0.0028
     33 C         138.8843  143.9814  163.8696 C.ar    1  UNL1       -0.0195
     34 C         138.6708  145.0641  162.8538 C.3     1  UNL1        0.0311
     35 C         138.0994  142.7061  163.7828 C.ar    1  UNL1        0.0267
     36 C         138.3129  141.6233  164.7988 C.ar    1  UNL1        0.1531
     37 F         137.5280  140.3481  164.7120 F       1  UNL1       -0.2029
@<TRIPOS>BOND
     1    26    27    1
     2    27     1    1
     3     1     2   ar
     4     2     3   ar
     5     3     4   ar
     6     4     5   ar
     7     5     6   ar
     8     6    21    1
     9    21    22   am
    10    21    23    2
    11     6     7   ar
    12     7    28    1
    13    28    30    1
    14    30    31   ar
    15    31    32   ar
    16    32    33   ar
    17    33    34    1
    18    33    35   ar
    19    35    36   ar
    20    36    37    1
    21     7     8   ar
    22     8     9   ar
    23     9    10   ar
    24    10    11    1
    25    11    12    1
    26    12    13    1
    27    13    14    1
    28    14    17    1
    29    17    18    1
    30    17    19    2
    31    17    20    2
    32    14    15    1
    33    15    16    1
    34    10     1   ar
    35    16    11    1
    36     8     3   ar
    37    36    30   ar
    38    22    24    1
    39    22    25    1
    40    28    29    1
