@<TRIPOS>MOLECULE
*****
 36 40 0 0 0
SMALL
GASTEIGER

@<TRIPOS>ATOM
      1 C         141.9447  138.2137  163.0788 C.ar    1  UNL1        0.1533
      2 C         141.3861  138.8988  164.2907 C.ar    1  UNL1        0.0527
      3 C         142.2786  139.7386  165.1556 C.ar    1  UNL1        0.0510
      4 C         143.7297  139.8934  164.8087 C.ar    1  UNL1        0.0160
      5 C         144.2882  139.2083  163.5968 C.ar    1  UNL1        0.0190
      6 C         143.3957  138.3685  162.7318 C.ar    1  UNL1        0.0850
      7 N         141.7200  140.4237  166.3675 N.pl3   1  UNL1       -0.3045
      8 C         142.4707  141.5573  167.0009 C.3     1  UNL1        0.1099
      9 C         141.9121  142.2425  168.2129 C.3     1  UNL1        0.1168
     10 N         140.6029  141.7939  168.7912 N.3     1  UNL1       -0.1559
     11 C         139.8522  140.6602  168.1578 C.3     1  UNL1        0.1168
     12 C         140.4107  139.9751  166.9459 C.3     1  UNL1        0.1099
     13 S         140.0442  142.4789  170.0032 S.O2    1  UNL1        0.0458
     14 C         139.4856  143.1640  171.2150 C.3     1  UNL1        0.1960
     15 O         139.9746  141.1610  170.7160 O.2     1  UNL1       -0.1572
     16 O         140.1139  143.7969  169.2901 O.2     1  UNL1       -0.1572
     17 C         139.9864  138.0236  161.3820 C.3     1  UNL1        0.2525
     18 O         141.0521  137.3739  162.2139 O.3     1  UNL1       -0.4701
     19 N         143.9544  137.6834  161.5199 N.pl3   1  UNL1       -0.2802
     20 H         144.5283  136.8903  161.6236 H       1  UNL1        0.1552
     21 C         143.6386  138.2068  160.1501 C.ar    1  UNL1        0.2208
     22 N         144.0436  139.5995  159.7677 N.ar    1  UNL1       -0.2111
     23 C         143.7279  140.1229  158.3979 C.ar    1  UNL1        0.1147
     24 C         143.0071  139.2536  157.4106 C.ar    1  UNL1        0.0960
     25 CL        142.6914  139.7770  156.0408 Cl      1  UNL1       -0.0790
     26 C         142.6021  137.8608  157.7931 C.ar    1  UNL1        0.1138
     27 N         142.9179  137.3375  159.1628 N.ar    1  UNL1       -0.2111
     28 C         141.8813  136.9915  156.8057 C.ar    1  UNL1        0.1031
     29 C         140.5492  137.2838  156.1814 C.ar    1  UNL1        0.1196
     30 N         140.2108  136.1502  155.2592 N.ar    1  UNL1       -0.2248
     31 C         141.3338  135.1572  155.3137 C.ar    1  UNL1        0.1479
     32 C         141.5496  133.8468  154.6164 C.ar    1  UNL1        0.0374
     33 C         142.7979  133.0564  154.8749 C.ar    1  UNL1        0.0046
     34 C         143.8304  133.5764  155.8308 C.ar    1  UNL1        0.0191
     35 C         143.6146  134.8868  156.5280 C.ar    1  UNL1        0.0815
     36 N         142.3663  135.6772  156.2695 N.ar    1  UNL1       -0.2874
@<TRIPOS>BOND
     1    17    18    1
     2    18     1    1
     3     1     2   ar
     4     2     3   ar
     5     3     7    1
     6     7     8    1
     7     8     9    1
     8     9    10    1
     9    10    13    1
    10    13    14    1
    11    13    15    2
    12    13    16    2
    13    10    11    1
    14    11    12    1
    15     3     4   ar
    16     4     5   ar
    17     5     6   ar
    18     6    19    1
    19    19    21    1
    20    21    22   ar
    21    22    23   ar
    22    23    24   ar
    23    24    25    1
    24    24    26   ar
    25    26    28    1
    26    28    29   ar
    27    29    30   ar
    28    30    31   ar
    29    31    32   ar
    30    32    33   ar
    31    33    34   ar
    32    34    35   ar
    33    35    36   ar
    34    26    27   ar
    35     6     1   ar
    36    27    21   ar
    37    12     7    1
    38    36    28   ar
    39    36    31   ar
    40    19    20    1
@<TRIPOS>MOLECULE
*****
 36 40 0 0 0
SMALL
GASTEIGER

@<TRIPOS>ATOM
      1 C         138.2435  141.4230  160.7753 C.ar    1  UNL1        0.1533
      2 C         138.3984  142.6163  159.8796 C.ar    1  UNL1        0.0527
      3 C         139.2108  142.5105  158.6231 C.ar    1  UNL1        0.0510
      4 C         139.8684  141.2115  158.2623 C.ar    1  UNL1        0.0160
      5 C         139.7135  140.0183  159.1580 C.ar    1  UNL1        0.0190
      6 C         138.9011  140.1240  160.4145 C.ar    1  UNL1        0.0850
      7 N         139.3657  143.7037  157.7275 N.pl3   1  UNL1       -0.3045
      8 C         140.1102  144.9128  158.2111 C.3     1  UNL1        0.1099
      9 C         140.2651  146.1061  157.3155 C.3     1  UNL1        0.1168
     10 N         139.6754  146.0903  155.9364 N.3     1  UNL1       -0.1559
     11 C         138.9309  144.8812  155.4528 C.3     1  UNL1        0.1168
     12 C         138.7760  143.6879  156.3484 C.3     1  UNL1        0.1099
     13 S         139.8303  147.2836  155.0407 S.O2    1  UNL1        0.0458
     14 C         139.9852  148.4768  154.1450 C.3     1  UNL1        0.1960
     15 O         138.8730  148.0537  155.9012 O.2     1  UNL1       -0.1572
     16 O         140.7876  146.5134  154.1802 O.2     1  UNL1       -0.1572
     17 C         137.6175  142.7009  162.9490 C.3     1  UNL1        0.2525
     18 O         137.4311  141.5288  162.0318 O.3     1  UNL1       -0.4701
     19 N         138.7462  138.9307  161.3101 N.pl3   1  UNL1       -0.2802
     20 H         138.0020  138.3021  161.1683 H       1  UNL1        0.1552
     21 C         139.7254  138.6952  162.4218 C.ar    1  UNL1        0.2208
     22 N         140.3944  137.3600  162.5616 N.ar    1  UNL1       -0.2111
     23 C         141.3735  137.1245  163.6733 C.ar    1  UNL1        0.1147
     24 C         141.6836  138.2242  164.6452 C.ar    1  UNL1        0.0960
     25 CL        142.6627  137.9887  165.7568 Cl      1  UNL1       -0.0790
     26 C         141.0145  139.5595  164.5053 C.ar    1  UNL1        0.1138
     27 N         140.0354  139.7949  163.3937 N.ar    1  UNL1       -0.2111
     28 C         141.3246  140.6592  165.4772 C.ar    1  UNL1        0.1031
     29 C         142.2601  141.8074  165.2402 C.ar    1  UNL1        0.1196
     30 N         142.2673  142.6616  166.4732 N.ar    1  UNL1       -0.2248
     31 C         141.3361  142.0412  167.4723 C.ar    1  UNL1        0.1479
     32 C         140.9435  142.4433  168.8630 C.ar    1  UNL1        0.0374
     33 C         139.9682  141.6078  169.6381 C.ar    1  UNL1        0.0046
     34 C         139.3856  140.3702  169.0225 C.ar    1  UNL1        0.0191
     35 C         139.7782  139.9681  167.6318 C.ar    1  UNL1        0.0815
     36 N         140.7535  140.8036  166.8567 N.ar    1  UNL1       -0.2874
@<TRIPOS>BOND
     1    17    18    1
     2    18     1    1
     3     1     2   ar
     4     2     3   ar
     5     3     7    1
     6     7     8    1
     7     8     9    1
     8     9    10    1
     9    10    13    1
    10    13    14    1
    11    13    15    2
    12    13    16    2
    13    10    11    1
    14    11    12    1
    15     3     4   ar
    16     4     5   ar
    17     5     6   ar
    18     6    19    1
    19    19    21    1
    20    21    22   ar
    21    22    23   ar
    22    23    24   ar
    23    24    25    1
    24    24    26   ar
    25    26    28    1
    26    28    29   ar
    27    29    30   ar
    28    30    31   ar
    29    31    32   ar
    30    32    33   ar
    31    33    34   ar
    32    34    35   ar
    33    35    36   ar
    34    26    27   ar
    35     6     1   ar
    36    27    21   ar
    37    12     7    1
    38    36    28   ar
    39    36    31   ar
    40    19    20    1
@<TRIPOS>MOLECULE
*****
 36 40 0 0 0
SMALL
GASTEIGER

@<TRIPOS>ATOM
      1 C         143.7659  139.6005  160.8051 C.ar    1  UNL1        0.1533
      2 C         144.0891  140.5225  159.6669 C.ar    1  UNL1        0.0527
      3 C         143.5786  140.2209  158.2891 C.ar    1  UNL1        0.0510
      4 C         142.7448  138.9972  158.0494 C.ar    1  UNL1        0.0160
      5 C         142.4216  138.0752  159.1876 C.ar    1  UNL1        0.0190
      6 C         142.9322  138.3768  160.5655 C.ar    1  UNL1        0.0850
      7 N         143.9018  141.1429  157.1510 N.pl3   1  UNL1       -0.3045
      8 C         142.7957  141.7441  156.3356 C.3     1  UNL1        0.1099
      9 C         143.1189  142.6663  155.1974 C.3     1  UNL1        0.1168
     10 N         144.5481  142.9871  154.8748 N.3     1  UNL1       -0.1559
     11 C         145.6543  142.3859  155.6903 C.3     1  UNL1        0.1168
     12 C         145.3311  141.4638  156.8284 C.3     1  UNL1        0.1099
     13 S         144.8714  143.9092  153.7367 S.O2    1  UNL1        0.0458
     14 C         145.1948  144.8312  152.5986 C.3     1  UNL1        0.1960
     15 O         143.7590  144.8220  154.1602 O.2     1  UNL1       -0.1572
     16 O         145.9839  142.9964  153.3132 O.2     1  UNL1       -0.1572
     17 C         144.9560  141.2100  162.4613 C.3     1  UNL1        0.2525
     18 O         144.2765  139.9021  162.1829 O.3     1  UNL1       -0.4701
     19 N         142.6089  137.4547  161.7035 N.pl3   1  UNL1       -0.2802
     20 H         143.1075  136.6127  161.8117 H       1  UNL1        0.1552
     21 C         141.5262  137.8155  162.6769 C.ar    1  UNL1        0.2208
     22 N         141.2412  136.9214  163.8470 N.ar    1  UNL1       -0.2111
     23 C         140.1584  137.2822  164.8204 C.ar    1  UNL1        0.1147
     24 C         139.3606  138.5371  164.6236 C.ar    1  UNL1        0.0960
     25 CL        138.2779  138.8979  165.5969 Cl      1  UNL1       -0.0790
     26 C         139.6457  139.4313  163.4534 C.ar    1  UNL1        0.1138
     27 N         140.7284  139.0704  162.4801 N.ar    1  UNL1       -0.2111
     28 C         138.8479  140.6862  163.2566 C.ar    1  UNL1        0.1031
     29 C         137.7821  140.9005  162.2230 C.ar    1  UNL1        0.1196
     30 N         137.2514  142.2939  162.3865 N.ar    1  UNL1       -0.2248
     31 C         137.9892  142.9408  163.5211 C.ar    1  UNL1        0.1479
     32 C         137.8900  144.3063  164.1340 C.ar    1  UNL1        0.0374
     33 C         138.7776  144.6781  165.2846 C.ar    1  UNL1        0.0046
     34 C         139.7643  143.6844  165.8223 C.ar    1  UNL1        0.0191
     35 C         139.8634  142.3190  165.2094 C.ar    1  UNL1        0.0815
     36 N         138.9759  141.9472  164.0588 N.ar    1  UNL1       -0.2874
@<TRIPOS>BOND
     1    17    18    1
     2    18     1    1
     3     1     2   ar
     4     2     3   ar
     5     3     7    1
     6     7     8    1
     7     8     9    1
     8     9    10    1
     9    10    13    1
    10    13    14    1
    11    13    15    2
    12    13    16    2
    13    10    11    1
    14    11    12    1
    15     3     4   ar
    16     4     5   ar
    17     5     6   ar
    18     6    19    1
    19    19    21    1
    20    21    22   ar
    21    22    23   ar
    22    23    24   ar
    23    24    25    1
    24    24    26   ar
    25    26    28    1
    26    28    29   ar
    27    29    30   ar
    28    30    31   ar
    29    31    32   ar
    30    32    33   ar
    31    33    34   ar
    32    34    35   ar
    33    35    36   ar
    34    26    27   ar
    35     6     1   ar
    36    27    21   ar
    37    12     7    1
    38    36    28   ar
    39    36    31   ar
    40    19    20    1
@<TRIPOS>MOLECULE
*****
 36 40 0 0 0
SMALL
GASTEIGER

@<TRIPOS>ATOM
      1 C         137.9876  140.8779  162.8053 C.ar    1  UNL1        0.1533
      2 C         138.7659  140.9261  164.0868 C.ar    1  UNL1        0.0527
      3 C         139.3909  139.6763  164.6322 C.ar    1  UNL1        0.0510
      4 C         139.2377  138.3783  163.8961 C.ar    1  UNL1        0.0160
      5 C         138.4595  138.3302  162.6147 C.ar    1  UNL1        0.0190
      6 C         137.8344  139.5799  162.0693 C.ar    1  UNL1        0.0850
      7 N         140.1691  139.7246  165.9136 N.pl3   1  UNL1       -0.3045
      8 C         139.4617  139.9794  167.2115 C.3     1  UNL1        0.1099
      9 C         140.2399  140.0277  168.4930 C.3     1  UNL1        0.1168
     10 N         141.7254  139.8212  168.4765 N.3     1  UNL1       -0.1559
     11 C         142.4329  139.5664  167.1786 C.3     1  UNL1        0.1168
     12 C         141.6548  139.5181  165.8971 C.3     1  UNL1        0.1099
     13 S         142.5037  139.8695  169.7579 S.O2    1  UNL1        0.0458
     14 C         143.2819  139.9179  171.0394 C.3     1  UNL1        0.1960
     15 O         142.9692  138.4622  169.5283 O.2     1  UNL1       -0.1572
     16 O         142.0381  141.2769  169.9875 O.2     1  UNL1       -0.1572
     17 C         137.8019  143.4691  162.7676 C.3     1  UNL1        0.2525
     18 O         137.3626  142.1277  162.2600 O.3     1  UNL1       -0.4701
     19 N         137.0562  139.5316  160.7879 N.pl3   1  UNL1       -0.2802
     20 H         136.0917  139.3348  160.8049 H       1  UNL1        0.1552
     21 C         137.7474  139.7832  159.4806 C.ar    1  UNL1        0.2208
     22 N         137.0706  140.5988  158.4192 N.ar    1  UNL1       -0.2111
     23 C         137.7618  140.8504  157.1120 C.ar    1  UNL1        0.1147
     24 C         139.1298  140.2864  156.8661 C.ar    1  UNL1        0.0960
     25 CL        139.8210  140.5380  155.5589 Cl      1  UNL1       -0.0790
     26 C         139.8066  139.4708  157.9276 C.ar    1  UNL1        0.1138
     27 N         139.1154  139.2192  159.2348 N.ar    1  UNL1       -0.2111
     28 C         141.1747  138.9068  157.6818 C.ar    1  UNL1        0.1031
     29 C         142.4605  139.4355  158.2448 C.ar    1  UNL1        0.1196
     30 N         143.5775  138.5705  157.7407 N.ar    1  UNL1       -0.2248
     31 C         142.9820  137.5071  156.8663 C.ar    1  UNL1        0.1479
     32 C         143.6001  136.3765  156.0985 C.ar    1  UNL1        0.0374
     33 C         142.7332  135.4537  155.2944 C.ar    1  UNL1        0.0046
     34 C         141.2481  135.6615  155.2580 C.ar    1  UNL1        0.0191
     35 C         140.6300  136.7922  156.0257 C.ar    1  UNL1        0.0815
     36 N         141.4969  137.7150  156.8299 N.ar    1  UNL1       -0.2874
@<TRIPOS>BOND
     1    17    18    1
     2    18     1    1
     3     1     2   ar
     4     2     3   ar
     5     3     7    1
     6     7     8    1
     7     8     9    1
     8     9    10    1
     9    10    13    1
    10    13    14    1
    11    13    15    2
    12    13    16    2
    13    10    11    1
    14    11    12    1
    15     3     4   ar
    16     4     5   ar
    17     5     6   ar
    18     6    19    1
    19    19    21    1
    20    21    22   ar
    21    22    23   ar
    22    23    24   ar
    23    24    25    1
    24    24    26   ar
    25    26    28    1
    26    28    29   ar
    27    29    30   ar
    28    30    31   ar
    29    31    32   ar
    30    32    33   ar
    31    33    34   ar
    32    34    35   ar
    33    35    36   ar
    34    26    27   ar
    35     6     1   ar
    36    27    21   ar
    37    12     7    1
    38    36    28   ar
    39    36    31   ar
    40    19    20    1
@<TRIPOS>MOLECULE
*****
 36 40 0 0 0
SMALL
GASTEIGER

@<TRIPOS>ATOM
      1 C         139.7680  143.9290  162.5511 C.ar    1  UNL1        0.1533
      2 C         140.0228  143.0329  163.7268 C.ar    1  UNL1        0.0527
      3 C         141.2995  143.1601  164.5040 C.ar    1  UNL1        0.0510
      4 C         142.3213  144.1833  164.1055 C.ar    1  UNL1        0.0160
      5 C         142.0665  145.0793  162.9298 C.ar    1  UNL1        0.0190
      6 C         140.7899  144.9522  162.1526 C.ar    1  UNL1        0.0850
      7 N         141.5542  142.2640  165.6796 N.pl3   1  UNL1       -0.3045
      8 C         140.8279  142.4969  166.9713 C.3     1  UNL1        0.1099
      9 C         141.0826  141.6008  168.1470 C.3     1  UNL1        0.1168
     10 N         142.0634  140.4720  168.0310 N.3     1  UNL1       -0.1559
     11 C         142.7897  140.2391  166.7394 C.3     1  UNL1        0.1168
     12 C         142.5350  141.1351  165.5637 C.3     1  UNL1        0.1099
     13 S         142.3182  139.5759  169.2067 S.O2    1  UNL1        0.0458
     14 C         142.5728  138.6799  170.3824 C.3     1  UNL1        0.1960
     15 O         143.2102  138.7178  168.3594 O.2     1  UNL1       -0.1572
     16 O         141.4261  140.4341  170.0540 O.2     1  UNL1       -0.1572
     17 C         138.2172  142.5590  160.9800 C.3     1  UNL1        0.2525
     18 O         138.4913  143.8018  161.7739 O.3     1  UNL1       -0.4701
     19 N         140.5352  145.8482  160.9769 N.pl3   1  UNL1       -0.2802
     20 H         140.1980  146.7623  161.1186 H       1  UNL1        0.1552
     21 C         140.7942  145.3517  159.5854 C.ar    1  UNL1        0.2208
     22 N         142.1992  145.0815  159.1349 N.ar    1  UNL1       -0.2111
     23 C         142.4582  144.5850  157.7434 C.ar    1  UNL1        0.1147
     24 C         141.3122  144.3587  156.8023 C.ar    1  UNL1        0.0960
     25 CL        141.5712  143.8622  155.4108 Cl      1  UNL1       -0.0790
     26 C         139.9071  144.6290  157.2529 C.ar    1  UNL1        0.1138
     27 N         139.6482  145.1254  158.6444 N.ar    1  UNL1       -0.2111
     28 C         138.7612  144.4027  156.3118 C.ar    1  UNL1        0.1031
     29 C         138.3421  145.3151  155.1974 C.ar    1  UNL1        0.1196
     30 N         137.1550  144.7005  154.5169 N.ar    1  UNL1       -0.2248
     31 C         136.8404  143.4084  155.2107 C.ar    1  UNL1        0.1479
     32 C         135.7783  142.3756  154.9756 C.ar    1  UNL1        0.0374
     33 C         135.7089  141.1588  155.8498 C.ar    1  UNL1        0.0046
     34 C         136.7016  140.9747  156.9592 C.ar    1  UNL1        0.0191
     35 C         137.7637  142.0074  157.1943 C.ar    1  UNL1        0.0815
     36 N         137.8331  143.2243  156.3200 N.ar    1  UNL1       -0.2874
@<TRIPOS>BOND
     1    17    18    1
     2    18     1    1
     3     1     2   ar
     4     2     3   ar
     5     3     7    1
     6     7     8    1
     7     8     9    1
     8     9    10    1
     9    10    13    1
    10    13    14    1
    11    13    15    2
    12    13    16    2
    13    10    11    1
    14    11    12    1
    15     3     4   ar
    16     4     5   ar
    17     5     6   ar
    18     6    19    1
    19    19    21    1
    20    21    22   ar
    21    22    23   ar
    22    23    24   ar
    23    24    25    1
    24    24    26   ar
    25    26    28    1
    26    28    29   ar
    27    29    30   ar
    28    30    31   ar
    29    31    32   ar
    30    32    33   ar
    31    33    34   ar
    32    34    35   ar
    33    35    36   ar
    34    26    27   ar
    35     6     1   ar
    36    27    21   ar
    37    12     7    1
    38    36    28   ar
    39    36    31   ar
    40    19    20    1
@<TRIPOS>MOLECULE
*****
 36 40 0 0 0
SMALL
GASTEIGER

@<TRIPOS>ATOM
      1 C         143.8671  142.6562  161.3190 C.ar    1  UNL1        0.1533
      2 C         144.8638  142.5124  160.2072 C.ar    1  UNL1        0.0527
      3 C         144.3914  142.3549  158.7922 C.ar    1  UNL1        0.0510
      4 C         142.9225  142.3410  158.4891 C.ar    1  UNL1        0.0160
      5 C         141.9259  142.4848  159.6009 C.ar    1  UNL1        0.0190
      6 C         142.3982  142.6423  161.0159 C.ar    1  UNL1        0.0850
      7 N         145.3881  142.2112  157.6805 N.pl3   1  UNL1       -0.3045
      8 C         146.7151  142.9050  157.7686 C.3     1  UNL1        0.1099
      9 C         147.7118  142.7613  156.6569 C.3     1  UNL1        0.1168
     10 N         147.3815  141.9239  155.4571 N.3     1  UNL1       -0.1559
     11 C         146.0546  141.2300  155.3690 C.3     1  UNL1        0.1168
     12 C         145.0578  141.3737  156.4807 C.3     1  UNL1        0.1099
     13 S         148.3783  141.7801  154.3453 S.O2    1  UNL1        0.0458
     14 C         149.3750  141.6364  153.2337 C.3     1  UNL1        0.1960
     15 O         147.3008  142.0680  153.3422 O.2     1  UNL1       -0.1572
     16 O         149.4557  141.4923  155.3486 O.2     1  UNL1       -0.1572
     17 C         145.3645  141.8713  163.2918 C.3     1  UNL1        0.2525
     18 O         144.3395  142.8137  162.7340 O.3     1  UNL1       -0.4701
     19 N         141.4015  142.7860  162.1276 N.pl3   1  UNL1       -0.2802
     20 H         141.0570  143.6765  162.3678 H       1  UNL1        0.1552
     21 C         140.9297  141.5731  162.8735 C.ar    1  UNL1        0.2208
     22 N         139.8519  140.7072  162.2918 N.ar    1  UNL1       -0.2111
     23 C         139.3801  139.4943  163.0376 C.ar    1  UNL1        0.1147
     24 C         139.9861  139.1473  164.3651 C.ar    1  UNL1        0.0960
     25 CL        139.5144  137.9344  165.1110 Cl      1  UNL1       -0.0790
     26 C         141.0641  140.0133  164.9468 C.ar    1  UNL1        0.1138
     27 N         141.5358  141.2262  164.2010 N.ar    1  UNL1       -0.2111
     28 C         141.6701  139.6664  166.2744 C.ar    1  UNL1        0.1031
     29 C         143.0154  139.0397  166.4926 C.ar    1  UNL1        0.1196
     30 N         143.2140  138.8712  167.9699 N.ar    1  UNL1       -0.2248
     31 C         141.9915  139.3937  168.6645 C.ar    1  UNL1        0.1479
     32 C         141.6239  139.4854  170.1159 C.ar    1  UNL1        0.0374
     33 C         140.3021  140.0686  170.5193 C.ar    1  UNL1        0.0046
     34 C         139.3480  140.5601  169.4714 C.ar    1  UNL1        0.0191
     35 C         139.7156  140.4683  168.0201 C.ar    1  UNL1        0.0815
     36 N         141.0373  139.8851  167.6166 N.ar    1  UNL1       -0.2874
@<TRIPOS>BOND
     1    17    18    1
     2    18     1    1
     3     1     2   ar
     4     2     3   ar
     5     3     7    1
     6     7     8    1
     7     8     9    1
     8     9    10    1
     9    10    13    1
    10    13    14    1
    11    13    15    2
    12    13    16    2
    13    10    11    1
    14    11    12    1
    15     3     4   ar
    16     4     5   ar
    17     5     6   ar
    18     6    19    1
    19    19    21    1
    20    21    22   ar
    21    22    23   ar
    22    23    24   ar
    23    24    25    1
    24    24    26   ar
    25    26    28    1
    26    28    29   ar
    27    29    30   ar
    28    30    31   ar
    29    31    32   ar
    30    32    33   ar
    31    33    34   ar
    32    34    35   ar
    33    35    36   ar
    34    26    27   ar
    35     6     1   ar
    36    27    21   ar
    37    12     7    1
    38    36    28   ar
    39    36    31   ar
    40    19    20    1
@<TRIPOS>MOLECULE
*****
 36 40 0 0 0
SMALL
GASTEIGER

@<TRIPOS>ATOM
      1 C         143.7807  140.8098  161.3319 C.ar    1  UNL1        0.1533
      2 C         143.5697  141.0385  162.7994 C.ar    1  UNL1        0.0527
      3 C         143.2842  139.8781  163.7059 C.ar    1  UNL1        0.0510
      4 C         143.2095  138.4889  163.1451 C.ar    1  UNL1        0.0160
      5 C         143.4205  138.2601  161.6777 C.ar    1  UNL1        0.0190
      6 C         143.7060  139.4206  160.7711 C.ar    1  UNL1        0.0850
      7 N         143.0732  140.1069  165.1732 N.pl3   1  UNL1       -0.3045
      8 C         142.9042  141.5019  165.6980 C.3     1  UNL1        0.1099
      9 C         142.6932  141.7308  167.1654 C.3     1  UNL1        0.1168
     10 N         142.6514  140.5647  168.1079 N.3     1  UNL1       -0.1559
     11 C         142.8205  139.1697  167.5831 C.3     1  UNL1        0.1168
     12 C         143.0314  138.9408  166.1158 C.3     1  UNL1        0.1099
     13 S         142.4405  140.7936  169.5753 S.O2    1  UNL1        0.0458
     14 C         142.2296  141.0223  171.0427 C.3     1  UNL1        0.1960
     15 O         141.8130  142.1231  169.2778 O.2     1  UNL1       -0.1572
     16 O         143.0680  139.4639  169.8727 O.2     1  UNL1       -0.1572
     17 C         143.0120  143.0092  160.1823 C.3     1  UNL1        0.2525
     18 O         144.0662  141.9702  160.4254 O.3     1  UNL1       -0.4701
     19 N         143.9170  139.1917  159.3037 N.pl3   1  UNL1       -0.2802
     20 H         144.7813  139.4169  158.8897 H       1  UNL1        0.1552
     21 C         142.8110  138.6198  158.4672 C.ar    1  UNL1        0.2208
     22 N         141.4388  139.2229  158.5242 N.ar    1  UNL1       -0.2111
     23 C         140.3329  138.6510  157.6877 C.ar    1  UNL1        0.1147
     24 C         140.5991  137.4760  156.7942 C.ar    1  UNL1        0.0960
     25 CL        139.4932  136.9040  155.9576 Cl      1  UNL1       -0.0790
     26 C         141.9714  136.8728  156.7372 C.ar    1  UNL1        0.1138
     27 N         143.0773  137.4447  157.5737 N.ar    1  UNL1       -0.2111
     28 C         142.2377  135.6977  155.8437 C.ar    1  UNL1        0.1031
     29 C         141.8010  135.5594  154.4154 C.ar    1  UNL1        0.1196
     30 N         142.2809  134.2309  153.9106 N.ar    1  UNL1       -0.2248
     31 C         143.0141  133.5481  155.0270 C.ar    1  UNL1        0.1479
     32 C         143.7025  132.2181  155.1100 C.ar    1  UNL1        0.0374
     33 C         144.3643  131.7946  156.3878 C.ar    1  UNL1        0.0046
     34 C         144.3376  132.7012  157.5825 C.ar    1  UNL1        0.0191
     35 C         143.6492  134.0313  157.4995 C.ar    1  UNL1        0.0815
     36 N         142.9874  134.4547  156.2217 N.ar    1  UNL1       -0.2874
@<TRIPOS>BOND
     1    17    18    1
     2    18     1    1
     3     1     2   ar
     4     2     3   ar
     5     3     7    1
     6     7     8    1
     7     8     9    1
     8     9    10    1
     9    10    13    1
    10    13    14    1
    11    13    15    2
    12    13    16    2
    13    10    11    1
    14    11    12    1
    15     3     4   ar
    16     4     5   ar
    17     5     6   ar
    18     6    19    1
    19    19    21    1
    20    21    22   ar
    21    22    23   ar
    22    23    24   ar
    23    24    25    1
    24    24    26   ar
    25    26    28    1
    26    28    29   ar
    27    29    30   ar
    28    30    31   ar
    29    31    32   ar
    30    32    33   ar
    31    33    34   ar
    32    34    35   ar
    33    35    36   ar
    34    26    27   ar
    35     6     1   ar
    36    27    21   ar
    37    12     7    1
    38    36    28   ar
    39    36    31   ar
    40    19    20    1
@<TRIPOS>MOLECULE
*****
 36 40 0 0 0
SMALL
GASTEIGER

@<TRIPOS>ATOM
      1 C         139.4664  140.5736  160.6681 C.ar    1  UNL1        0.1533
      2 C         139.5455  140.7485  162.1559 C.ar    1  UNL1        0.0527
      3 C         139.4213  139.5571  163.0588 C.ar    1  UNL1        0.0510
      4 C         139.2179  138.1909  162.4740 C.ar    1  UNL1        0.0160
      5 C         139.1388  138.0160  160.9864 C.ar    1  UNL1        0.0190
      6 C         139.2630  139.2073  160.0834 C.ar    1  UNL1        0.0850
      7 N         139.5004  139.7321  164.5464 N.pl3   1  UNL1       -0.3045
      8 C         140.6041  140.5511  165.1475 C.3     1  UNL1        0.1099
      9 C         140.6833  140.7261  166.6352 C.3     1  UNL1        0.1168
     10 N         139.6589  140.0823  167.5216 N.3     1  UNL1       -0.1559
     11 C         138.5552  139.2633  166.9205 C.3     1  UNL1        0.1168
     12 C         138.4760  139.0883  165.4329 C.3     1  UNL1        0.1099
     13 S         139.7380  140.2573  169.0094 S.O2    1  UNL1        0.0458
     14 C         139.8171  140.4322  170.4970 C.3     1  UNL1        0.1960
     15 O         141.0276  141.0072  168.8526 O.2     1  UNL1       -0.1572
     16 O         138.4484  139.5073  169.1661 O.2     1  UNL1       -0.1572
     17 C         140.8418  142.5921  159.7828 C.3     1  UNL1        0.2525
     18 O         139.5906  141.7649  159.7652 O.3     1  UNL1       -0.4701
     19 N         139.1839  139.0323  158.5958 N.pl3   1  UNL1       -0.2802
     20 H         138.3295  139.1754  158.1281 H       1  UNL1        0.1552
     21 C         140.4065  138.6392  157.8207 C.ar    1  UNL1        0.2208
     22 N         141.5153  139.6286  157.6165 N.ar    1  UNL1       -0.2111
     23 C         142.7379  139.2355  156.8415 C.ar    1  UNL1        0.1147
     24 C         142.8516  137.8531  156.2705 C.ar    1  UNL1        0.0960
     25 CL        144.0742  137.4600  155.4954 Cl      1  UNL1       -0.0790
     26 C         141.7427  136.8637  156.4746 C.ar    1  UNL1        0.1138
     27 N         140.5202  137.2568  157.2497 N.ar    1  UNL1       -0.2111
     28 C         141.8565  135.4813  155.9036 C.ar    1  UNL1        0.1031
     29 C         141.1030  134.9516  154.7197 C.ar    1  UNL1        0.1196
     30 N         141.5246  133.5288  154.5008 N.ar    1  UNL1       -0.2248
     31 C         142.5386  133.1791  155.5494 C.ar    1  UNL1        0.1479
     32 C         143.3016  131.9179  155.8267 C.ar    1  UNL1        0.0374
     33 C         144.2697  131.8633  156.9711 C.ar    1  UNL1        0.0046
     34 C         144.4748  133.0700  157.8382 C.ar    1  UNL1        0.0191
     35 C         143.7118  134.3313  157.5608 C.ar    1  UNL1        0.0815
     36 N         142.7437  134.3859  156.4164 N.ar    1  UNL1       -0.2874
@<TRIPOS>BOND
     1    17    18    1
     2    18     1    1
     3     1     2   ar
     4     2     3   ar
     5     3     7    1
     6     7     8    1
     7     8     9    1
     8     9    10    1
     9    10    13    1
    10    13    14    1
    11    13    15    2
    12    13    16    2
    13    10    11    1
    14    11    12    1
    15     3     4   ar
    16     4     5   ar
    17     5     6   ar
    18     6    19    1
    19    19    21    1
    20    21    22   ar
    21    22    23   ar
    22    23    24   ar
    23    24    25    1
    24    24    26   ar
    25    26    28    1
    26    28    29   ar
    27    29    30   ar
    28    30    31   ar
    29    31    32   ar
    30    32    33   ar
    31    33    34   ar
    32    34    35   ar
    33    35    36   ar
    34    26    27   ar
    35     6     1   ar
    36    27    21   ar
    37    12     7    1
    38    36    28   ar
    39    36    31   ar
    40    19    20    1
@<TRIPOS>MOLECULE
*****
 36 40 0 0 0
SMALL
GASTEIGER

@<TRIPOS>ATOM
      1 C         144.0935  140.2246  156.2522 C.ar    1  UNL1        0.1533
      2 C         143.7723  138.8067  155.8827 C.ar    1  UNL1        0.0527
      3 C         142.9790  137.9480  156.8226 C.ar    1  UNL1        0.0510
      4 C         142.5068  138.5072  158.1319 C.ar    1  UNL1        0.0160
      5 C         142.8279  139.9251  158.5013 C.ar    1  UNL1        0.0190
      6 C         143.6213  140.7838  157.5615 C.ar    1  UNL1        0.0850
      7 N         142.6579  136.5302  156.4530 N.pl3   1  UNL1       -0.3045
      8 C         141.4700  136.2315  155.5871 C.3     1  UNL1        0.1099
      9 C         141.1488  134.8136  155.2175 C.3     1  UNL1        0.1168
     10 N         142.0156  133.6946  155.7138 N.3     1  UNL1       -0.1559
     11 C         143.2034  133.9932  156.5797 C.3     1  UNL1        0.1168
     12 C         143.5246  135.4111  156.9493 C.3     1  UNL1        0.1099
     13 S         141.6945  132.2766  155.3443 S.O2    1  UNL1        0.0458
     14 C         141.3733  130.8588  154.9747 C.3     1  UNL1        0.1960
     15 O         142.2718  131.8065  156.6464 O.2     1  UNL1       -0.1572
     16 O         141.1171  132.7469  154.0421 O.2     1  UNL1       -0.1572
     17 C         146.3786  141.1631  155.4475 C.3     1  UNL1        0.2525
     18 O         144.8868  141.0833  155.3124 O.3     1  UNL1       -0.4701
     19 N         143.9424  142.2017  157.9311 N.pl3   1  UNL1       -0.2802
     20 H         144.2752  142.8256  157.2461 H       1  UNL1        0.1552
     21 C         143.7563  142.6690  159.3442 C.ar    1  UNL1        0.2208
     22 N         144.8911  142.5752  160.3207 N.ar    1  UNL1       -0.2111
     23 C         144.7051  143.0425  161.7338 C.ar    1  UNL1        0.1147
     24 C         143.3843  143.6036  162.1705 C.ar    1  UNL1        0.0960
     25 CL        143.1983  144.0710  163.5837 Cl      1  UNL1       -0.0790
     26 C         142.2494  143.6974  161.1940 C.ar    1  UNL1        0.1138
     27 N         142.4355  143.2301  159.7809 N.ar    1  UNL1       -0.2111
     28 C         140.9287  144.2585  161.6307 C.ar    1  UNL1        0.1031
     29 C         140.3334  145.5612  161.1850 C.ar    1  UNL1        0.1196
     30 N         139.0081  145.7231  161.8686 N.ar    1  UNL1       -0.2248
     31 C         138.7843  144.5206  162.7368 C.ar    1  UNL1        0.1479
     32 C         137.6530  144.1329  163.6422 C.ar    1  UNL1        0.0374
     33 C         137.7087  142.8400  164.4006 C.ar    1  UNL1        0.0046
     34 C         138.8957  141.9348  164.2536 C.ar    1  UNL1        0.0191
     35 C         140.0270  142.3224  163.3481 C.ar    1  UNL1        0.0815
     36 N         139.9713  143.6154  162.5897 N.ar    1  UNL1       -0.2874
@<TRIPOS>BOND
     1    17    18    1
     2    18     1    1
     3     1     2   ar
     4     2     3   ar
     5     3     7    1
     6     7     8    1
     7     8     9    1
     8     9    10    1
     9    10    13    1
    10    13    14    1
    11    13    15    2
    12    13    16    2
    13    10    11    1
    14    11    12    1
    15     3     4   ar
    16     4     5   ar
    17     5     6   ar
    18     6    19    1
    19    19    21    1
    20    21    22   ar
    21    22    23   ar
    22    23    24   ar
    23    24    25    1
    24    24    26   ar
    25    26    28    1
    26    28    29   ar
    27    29    30   ar
    28    30    31   ar
    29    31    32   ar
    30    32    33   ar
    31    33    34   ar
    32    34    35   ar
    33    35    36   ar
    34    26    27   ar
    35     6     1   ar
    36    27    21   ar
    37    12     7    1
    38    36    28   ar
    39    36    31   ar
    40    19    20    1
