@<TRIPOS>MOLECULE
*****
 35 39 0 0 0
SMALL
GASTEIGER

@<TRIPOS>ATOM
      1 N         142.4847  138.9564  162.6649 N.3     1  UNL1       -0.2712
      2 C         143.8923  139.2457  163.0950 C.3     1  UNL1        0.0738
      3 C         144.1415  140.7131  162.9085 C.3     1  UNL1        0.0372
      4 C         145.1655  141.7988  163.0591 C.3     1  UNL1        0.0245
      5 C         144.5449  143.0873  162.6068 C.3     1  UNL1        0.0909
      6 N         143.1372  142.7979  162.1767 N.pl3   1  UNL1       -0.3060
      7 C         142.8880  141.3306  162.3632 C.3     1  UNL1        0.0901
      8 C         141.8640  140.2449  162.2126 C.3     1  UNL1        0.0921
      9 C         142.1519  143.7999  161.6522 C.ar    1  UNL1        0.0795
     10 C         142.1557  144.1649  160.1973 C.ar    1  UNL1        0.1533
     11 F         143.1449  143.5277  159.2668 F       1  UNL1       -0.2029
     12 C         141.1704  145.1669  159.6728 C.ar    1  UNL1        0.0309
     13 C         140.1813  145.8040  160.6032 C.ar    1  UNL1        0.0023
     14 C         140.1775  145.4391  162.0582 C.ar    1  UNL1        0.0052
     15 C         141.1628  144.4371  162.5827 C.ar    1  UNL1        0.0869
     16 C         141.1590  144.0722  164.0376 C.3     1  UNL1        0.4198
     17 F         141.1552  143.7072  165.4925 F       1  UNL1       -0.1658
     18 F         142.1544  145.1599  164.3130 F       1  UNL1       -0.1658
     19 F         140.1635  142.9844  163.7622 F       1  UNL1       -0.1658
     20 C         141.8153  137.6142  162.6837 C.3     1  UNL1        0.0731
     21 C         140.8004  137.2970  163.7417 C.3     1  UNL1        0.0294
     22 C         139.3542  137.6255  163.5164 C.3     1  UNL1        0.0666
     23 S         138.7679  138.8737  164.1066 S.3     1  UNL1       -0.0756
     24 C         141.0530  140.3673  165.8946 C.3     1  UNL1        0.1340
     25 N         139.7919  139.7453  166.4167 N.ar    1  UNL1       -0.2872
     26 C         138.7415  139.0588  165.5949 C.ar    1  UNL1        0.1933
     27 N         137.6601  138.5899  166.5226 N.ar    1  UNL1       -0.1221
     28 N         138.0421  138.9866  167.9178 N.ar    1  UNL1       -0.1266
     29 C         139.3596  139.7007  167.8525 C.ar    1  UNL1        0.1862
     30 C         140.1126  140.2702  169.0181 C.ar    1  UNL1        0.1362
     31 C         139.4872  141.3384  169.8653 C.ar    1  UNL1        0.1211
     32 N         140.2402  141.9079  171.0310 N.ar    1  UNL1       -0.2390
     33 C         141.6187  141.4091  171.3493 C.ar    1  UNL1        0.1195
     34 C         142.2440  140.3409  170.5020 C.ar    1  UNL1        0.1196
     35 N         141.4909  139.7715  169.3364 N.ar    1  UNL1       -0.2375
@<TRIPOS>BOND
     1    24    25    1
     2    25    26   ar
     3    26    23    1
     4    23    22    1
     5    22    21    1
     6    21    20    1
     7    20     1    1
     8     1     2    1
     9     2     3    1
    10     3     4    1
    11     4     5    1
    12     5     6    1
    13     6     9    1
    14     9    10   ar
    15    10    11    1
    16    10    12   ar
    17    12    13   ar
    18    13    14   ar
    19    14    15   ar
    20    15    16    1
    21    16    17    1
    22    16    18    1
    23    16    19    1
    24     6     7    1
    25     7     8    1
    26    26    27   ar
    27    27    28   ar
    28    28    29   ar
    29    29    30    1
    30    30    31   ar
    31    31    32   ar
    32    32    33   ar
    33    33    34   ar
    34    34    35   ar
    35    29    25   ar
    36    35    30   ar
    37     8     1    1
    38     7     3    1
    39    15     9   ar
@<TRIPOS>MOLECULE
*****
 35 39 0 0 0
SMALL
GASTEIGER

@<TRIPOS>ATOM
      1 N         141.1820  138.3552  162.3540 N.3     1  UNL1       -0.2712
      2 C         141.8195  138.2406  161.0010 C.3     1  UNL1        0.0738
      3 C         142.6772  139.4527  160.7886 C.3     1  UNL1        0.0372
      4 C         143.6013  140.1311  159.8212 C.3     1  UNL1        0.0245
      5 C         144.0650  141.4140  160.4450 C.3     1  UNL1        0.0909
      6 N         143.4275  141.5286  161.7980 N.pl3   1  UNL1       -0.3060
      7 C         142.5698  140.3165  162.0103 C.3     1  UNL1        0.0901
      8 C         141.6457  139.6381  162.9778 C.3     1  UNL1        0.0921
      9 C         143.6148  142.6571  162.7682 C.ar    1  UNL1        0.0795
     10 C         143.0381  144.0086  162.4670 C.ar    1  UNL1        0.1533
     11 F         142.2741  144.2317  161.1955 F       1  UNL1       -0.2029
     12 C         143.2255  145.1372  163.4372 C.ar    1  UNL1        0.0309
     13 C         143.9895  144.9142  164.7086 C.ar    1  UNL1        0.0023
     14 C         144.5662  143.5626  165.0099 C.ar    1  UNL1        0.0052
     15 C         144.3789  142.4340  164.0396 C.ar    1  UNL1        0.0869
     16 C         144.9556  141.0825  164.3408 C.3     1  UNL1        0.4198
     17 F         145.5323  139.7310  164.6420 F       1  UNL1       -0.1658
     18 F         146.1386  141.3939  163.4729 F       1  UNL1       -0.1658
     19 F         143.7725  140.7711  165.2088 F       1  UNL1       -0.1658
     20 C         140.2452  137.3614  162.9743 C.3     1  UNL1        0.0731
     21 C         138.8771  137.7926  163.4127 C.3     1  UNL1        0.0294
     22 C         138.6781  138.3828  164.7773 C.3     1  UNL1        0.0666
     23 S         138.2865  139.8235  164.9215 S.3     1  UNL1       -0.0756
     24 C         139.4648  139.8737  167.9643 C.3     1  UNL1        0.1340
     25 N         139.8096  140.8391  166.8693 N.ar    1  UNL1       -0.2872
     26 C         139.2680  140.8161  165.4707 C.ar    1  UNL1        0.1933
     27 N         139.8801  141.9598  164.7176 N.ar    1  UNL1       -0.1221
     28 N         140.8001  142.6898  165.6508 N.ar    1  UNL1       -0.1266
     29 C         140.7566  141.9972  166.9806 C.ar    1  UNL1        0.1862
     30 C         141.5250  142.3931  168.2065 C.ar    1  UNL1        0.1362
     31 C         140.8657  143.2196  169.2706 C.ar    1  UNL1        0.1211
     32 N         141.6342  143.6155  170.4964 N.ar    1  UNL1       -0.2390
     33 C         143.0619  143.1848  170.6582 C.ar    1  UNL1        0.1195
     34 C         143.7212  142.3582  169.5942 C.ar    1  UNL1        0.1196
     35 N         142.9527  141.9624  168.3683 N.ar    1  UNL1       -0.2375
@<TRIPOS>BOND
     1    24    25    1
     2    25    26   ar
     3    26    23    1
     4    23    22    1
     5    22    21    1
     6    21    20    1
     7    20     1    1
     8     1     2    1
     9     2     3    1
    10     3     4    1
    11     4     5    1
    12     5     6    1
    13     6     9    1
    14     9    10   ar
    15    10    11    1
    16    10    12   ar
    17    12    13   ar
    18    13    14   ar
    19    14    15   ar
    20    15    16    1
    21    16    17    1
    22    16    18    1
    23    16    19    1
    24     6     7    1
    25     7     8    1
    26    26    27   ar
    27    27    28   ar
    28    28    29   ar
    29    29    30    1
    30    30    31   ar
    31    31    32   ar
    32    32    33   ar
    33    33    34   ar
    34    34    35   ar
    35    29    25   ar
    36    35    30   ar
    37     8     1    1
    38     7     3    1
    39    15     9   ar
@<TRIPOS>MOLECULE
*****
 35 39 0 0 0
SMALL
GASTEIGER

@<TRIPOS>ATOM
      1 N         138.6822  143.0068  164.1801 N.3     1  UNL1       -0.2712
      2 C         138.1130  141.6215  164.0975 C.3     1  UNL1        0.0738
      3 C         138.6187  140.8418  165.2749 C.3     1  UNL1        0.0372
      4 C         138.5795  139.5036  165.9516 C.3     1  UNL1        0.0245
      5 C         139.4369  139.5800  167.1800 C.3     1  UNL1        0.0909
      6 N         140.0061  140.9654  167.2625 N.pl3   1  UNL1       -0.3060
      7 C         139.5004  141.7452  166.0851 C.3     1  UNL1        0.0901
      8 C         139.5397  143.0833  165.4084 C.3     1  UNL1        0.0921
      9 C         140.9204  141.4806  168.3343 C.ar    1  UNL1        0.0795
     10 C         140.3806  141.7769  169.7020 C.ar    1  UNL1        0.1533
     11 F         138.9265  141.5581  169.9981 F       1  UNL1       -0.2029
     12 C         141.2950  142.2921  170.7738 C.ar    1  UNL1        0.0309
     13 C         142.7490  142.5109  170.4778 C.ar    1  UNL1        0.0023
     14 C         143.2889  142.2146  169.1100 C.ar    1  UNL1        0.0052
     15 C         142.3746  141.6994  168.0382 C.ar    1  UNL1        0.0869
     16 C         142.9144  141.4031  166.6705 C.3     1  UNL1        0.4198
     17 F         143.4541  141.1068  165.3027 F       1  UNL1       -0.1658
     18 F         143.0154  139.9492  167.0253 F       1  UNL1       -0.1658
     19 F         142.8133  142.8571  166.3155 F       1  UNL1       -0.1658
     20 C         138.4370  144.1203  163.2053 C.3     1  UNL1        0.0731
     21 C         139.4938  145.1588  162.9717 C.3     1  UNL1        0.0294
     22 C         139.6012  145.8324  161.6357 C.3     1  UNL1        0.0666
     23 S         140.6073  145.3521  160.6323 S.3     1  UNL1       -0.0756
     24 C         140.3534  142.1275  160.1991 C.3     1  UNL1        0.1340
     25 N         141.5118  142.8443  160.8271 N.ar    1  UNL1       -0.2872
     26 C         141.6285  144.3264  161.0262 C.ar    1  UNL1        0.1933
     27 N         142.9457  144.6029  161.6885 N.ar    1  UNL1       -0.1221
     28 N         143.6431  143.2916  161.8987 N.ar    1  UNL1       -0.1266
     29 C         142.7570  142.2046  161.3663 C.ar    1  UNL1        0.1862
     30 C         143.0623  140.7361  161.3722 C.ar    1  UNL1        0.1362
     31 C         143.7958  140.1179  160.2190 C.ar    1  UNL1        0.1211
     32 N         144.1011  138.6493  160.2248 N.ar    1  UNL1       -0.2390
     33 C         143.6728  137.7989  161.3839 C.ar    1  UNL1        0.1195
     34 C         142.9393  138.4171  162.5371 C.ar    1  UNL1        0.1196
     35 N         142.6340  139.8857  162.5312 N.ar    1  UNL1       -0.2375
@<TRIPOS>BOND
     1    24    25    1
     2    25    26   ar
     3    26    23    1
     4    23    22    1
     5    22    21    1
     6    21    20    1
     7    20     1    1
     8     1     2    1
     9     2     3    1
    10     3     4    1
    11     4     5    1
    12     5     6    1
    13     6     9    1
    14     9    10   ar
    15    10    11    1
    16    10    12   ar
    17    12    13   ar
    18    13    14   ar
    19    14    15   ar
    20    15    16    1
    21    16    17    1
    22    16    18    1
    23    16    19    1
    24     6     7    1
    25     7     8    1
    26    26    27   ar
    27    27    28   ar
    28    28    29   ar
    29    29    30    1
    30    30    31   ar
    31    31    32   ar
    32    32    33   ar
    33    33    34   ar
    34    34    35   ar
    35    29    25   ar
    36    35    30   ar
    37     8     1    1
    38     7     3    1
    39    15     9   ar
@<TRIPOS>MOLECULE
*****
 35 39 0 0 0
SMALL
GASTEIGER

@<TRIPOS>ATOM
      1 N         143.5032  142.6084  163.3123 N.3     1  UNL1       -0.2712
      2 C         144.6874  141.7162  163.5397 C.3     1  UNL1        0.0738
      3 C         144.2231  140.5177  164.3129 C.3     1  UNL1        0.0372
      4 C         144.6680  139.2255  164.9312 C.3     1  UNL1        0.0245
      5 C         143.4718  138.5782  165.5639 C.3     1  UNL1        0.0909
      6 N         142.2876  139.4705  165.3365 N.pl3   1  UNL1       -0.3060
      7 C         142.7519  140.6690  164.5634 C.3     1  UNL1        0.0901
      8 C         142.3070  141.9612  163.9450 C.3     1  UNL1        0.0921
      9 C         140.8853  139.2098  165.8009 C.ar    1  UNL1        0.0795
     10 C         140.3677  139.8818  167.0380 C.ar    1  UNL1        0.1533
     11 F         141.2525  140.8145  167.8109 F       1  UNL1       -0.2029
     12 C         138.9654  139.6211  167.5023 C.ar    1  UNL1        0.0309
     13 C         138.0806  138.6885  166.7295 C.ar    1  UNL1        0.0023
     14 C         138.5982  138.0165  165.4923 C.ar    1  UNL1        0.0052
     15 C         140.0005  138.2771  165.0280 C.ar    1  UNL1        0.0869
     16 C         140.5180  137.6052  163.7908 C.3     1  UNL1        0.4198
     17 F         141.0355  136.9332  162.5537 F       1  UNL1       -0.1658
     18 F         139.9360  138.7032  162.9509 F       1  UNL1       -0.1658
     19 F         141.1001  136.5070  164.6307 F       1  UNL1       -0.1658
     20 C         143.5133  143.9178  162.5808 C.3     1  UNL1        0.0731
     21 C         142.8958  145.1323  163.2082 C.3     1  UNL1        0.0294
     22 C         141.4282  145.1524  163.5181 C.3     1  UNL1        0.0666
     23 S         140.4431  145.5469  162.4580 S.3     1  UNL1       -0.0756
     24 C         141.0857  143.9351  159.6942 C.3     1  UNL1        0.1340
     25 N         139.8657  143.7658  160.5504 N.ar    1  UNL1       -0.2872
     26 C         139.5704  144.5066  161.8208 C.ar    1  UNL1        0.1933
     27 N         138.2490  144.0246  162.3421 N.ar    1  UNL1       -0.1221
     28 N         137.7277  142.9858  161.3938 N.ar    1  UNL1       -0.1266
     29 C         138.7268  142.8258  160.2865 C.ar    1  UNL1        0.1862
     30 C         138.6080  141.8901  159.1201 C.ar    1  UNL1        0.1362
     31 C         138.9685  140.4429  159.2798 C.ar    1  UNL1        0.1211
     32 N         138.8497  139.5072  158.1134 N.ar    1  UNL1       -0.2390
     33 C         138.3703  140.0190  156.7873 C.ar    1  UNL1        0.1195
     34 C         138.0098  141.4662  156.6276 C.ar    1  UNL1        0.1196
     35 N         138.1286  142.4018  157.7941 N.ar    1  UNL1       -0.2375
@<TRIPOS>BOND
     1    24    25    1
     2    25    26   ar
     3    26    23    1
     4    23    22    1
     5    22    21    1
     6    21    20    1
     7    20     1    1
     8     1     2    1
     9     2     3    1
    10     3     4    1
    11     4     5    1
    12     5     6    1
    13     6     9    1
    14     9    10   ar
    15    10    11    1
    16    10    12   ar
    17    12    13   ar
    18    13    14   ar
    19    14    15   ar
    20    15    16    1
    21    16    17    1
    22    16    18    1
    23    16    19    1
    24     6     7    1
    25     7     8    1
    26    26    27   ar
    27    27    28   ar
    28    28    29   ar
    29    29    30    1
    30    30    31   ar
    31    31    32   ar
    32    32    33   ar
    33    33    34   ar
    34    34    35   ar
    35    29    25   ar
    36    35    30   ar
    37     8     1    1
    38     7     3    1
    39    15     9   ar
@<TRIPOS>MOLECULE
*****
 35 39 0 0 0
SMALL
GASTEIGER

@<TRIPOS>ATOM
      1 N         139.4540  139.6013  160.7959 N.3     1  UNL1       -0.2712
      2 C         138.9143  140.2659  159.5643 C.3     1  UNL1        0.0738
      3 C         139.4419  141.6696  159.5261 C.3     1  UNL1        0.0372
      4 C         139.4344  142.9479  158.7413 C.3     1  UNL1        0.0245
      5 C         140.2954  143.9408  159.4644 C.3     1  UNL1        0.0909
      6 N         140.8350  143.2761  160.6961 N.pl3   1  UNL1       -0.3060
      7 C         140.3075  141.8725  160.7342 C.3     1  UNL1        0.0901
      8 C         140.3150  140.5942  161.5190 C.3     1  UNL1        0.0921
      9 C         141.7428  143.9048  161.7114 C.ar    1  UNL1        0.0795
     10 C         143.2284  143.7316  161.5983 C.ar    1  UNL1        0.1533
     11 F         143.8064  142.9298  160.4700 F       1  UNL1       -0.2029
     12 C         144.1362  144.3602  162.6136 C.ar    1  UNL1        0.0309
     13 C         143.5583  145.1620  163.7419 C.ar    1  UNL1        0.0023
     14 C         142.0726  145.3353  163.8550 C.ar    1  UNL1        0.0052
     15 C         141.1648  144.7066  162.8397 C.ar    1  UNL1        0.0869
     16 C         139.6792  144.8798  162.9528 C.3     1  UNL1        0.4198
     17 F         138.1935  145.0529  163.0658 F       1  UNL1       -0.1658
     18 F         139.6069  143.6767  163.8457 F       1  UNL1       -0.1658
     19 F         139.7514  146.0829  162.0598 F       1  UNL1       -0.1658
     20 C         139.1806  138.1913  161.2286 C.3     1  UNL1        0.0731
     21 C         139.7528  137.6777  162.5166 C.3     1  UNL1        0.0294
     22 C         138.9245  137.7000  163.7670 C.3     1  UNL1        0.0666
     23 S         138.5165  139.0100  164.3731 S.3     1  UNL1       -0.0756
     24 C         140.8575  140.6084  165.9900 C.3     1  UNL1        0.1340
     25 N         139.6634  139.9380  166.6021 N.ar    1  UNL1       -0.2872
     26 C         138.5874  139.2033  165.8589 C.ar    1  UNL1        0.1933
     27 N         137.5946  138.6957  166.8624 N.ar    1  UNL1       -0.1221
     28 N         138.0571  139.1168  168.2258 N.ar    1  UNL1       -0.1266
     29 C         139.3357  139.8846  168.0650 C.ar    1  UNL1        0.1862
     30 C         140.1445  140.4922  169.1725 C.ar    1  UNL1        0.1362
     31 C         139.5316  141.5281  170.0676 C.ar    1  UNL1        0.1211
     32 N         140.3404  142.1357  171.1751 N.ar    1  UNL1       -0.2390
     33 C         141.7622  141.7073  171.3875 C.ar    1  UNL1        0.1195
     34 C         142.3752  140.6714  170.4924 C.ar    1  UNL1        0.1196
     35 N         141.5662  140.0638  169.3849 N.ar    1  UNL1       -0.2375
@<TRIPOS>BOND
     1    24    25    1
     2    25    26   ar
     3    26    23    1
     4    23    22    1
     5    22    21    1
     6    21    20    1
     7    20     1    1
     8     1     2    1
     9     2     3    1
    10     3     4    1
    11     4     5    1
    12     5     6    1
    13     6     9    1
    14     9    10   ar
    15    10    11    1
    16    10    12   ar
    17    12    13   ar
    18    13    14   ar
    19    14    15   ar
    20    15    16    1
    21    16    17    1
    22    16    18    1
    23    16    19    1
    24     6     7    1
    25     7     8    1
    26    26    27   ar
    27    27    28   ar
    28    28    29   ar
    29    29    30    1
    30    30    31   ar
    31    31    32   ar
    32    32    33   ar
    33    33    34   ar
    34    34    35   ar
    35    29    25   ar
    36    35    30   ar
    37     8     1    1
    38     7     3    1
    39    15     9   ar
@<TRIPOS>MOLECULE
*****
 35 39 0 0 0
SMALL
GASTEIGER

@<TRIPOS>ATOM
      1 N         141.9149  138.3148  162.6448 N.3     1  UNL1       -0.2712
      2 C         141.1058  137.2574  163.3357 C.3     1  UNL1        0.0738
      3 C         140.0544  137.9417  164.1581 C.3     1  UNL1        0.0372
      4 C         138.9046  137.7112  165.0934 C.3     1  UNL1        0.0245
      5 C         138.3532  139.0490  165.4887 C.3     1  UNL1        0.0909
      6 N         139.1623  140.1064  164.7978 N.pl3   1  UNL1       -0.3060
      7 C         140.2137  139.4220  163.9754 C.3     1  UNL1        0.0901
      8 C         141.3635  139.6526  163.0402 C.3     1  UNL1        0.0921
      9 C         138.9562  141.5879  164.9096 C.ar    1  UNL1        0.0795
     10 C         137.8919  142.2607  164.0944 C.ar    1  UNL1        0.1533
     11 F         137.0336  141.4519  163.1673 F       1  UNL1       -0.2029
     12 C         137.6857  143.7422  164.2062 C.ar    1  UNL1        0.0309
     13 C         138.5439  144.5510  165.1332 C.ar    1  UNL1        0.0023
     14 C         139.6083  143.8783  165.9485 C.ar    1  UNL1        0.0052
     15 C         139.8144  142.3967  165.8366 C.ar    1  UNL1        0.0869
     16 C         140.8787  141.7239  166.6518 C.3     1  UNL1        0.4198
     17 F         141.9430  141.0512  167.4670 F       1  UNL1       -0.1658
     18 F         141.8990  142.0759  165.6102 F       1  UNL1       -0.1658
     19 F         139.8584  141.3719  167.6935 F       1  UNL1       -0.1658
     20 C         143.0721  138.0763  161.7208 C.3     1  UNL1        0.0731
     21 C         142.8544  137.3793  160.4105 C.3     1  UNL1        0.0294
     22 C         142.8896  138.1604  159.1304 C.3     1  UNL1        0.0666
     23 S         141.6274  138.7544  158.5793 S.3     1  UNL1       -0.0756
     24 C         142.7693  141.6525  159.5523 C.3     1  UNL1        0.1340
     25 N         141.3965  141.1106  159.8202 N.ar    1  UNL1       -0.2872
     26 C         140.8716  139.7785  159.3730 C.ar    1  UNL1        0.1933
     27 N         139.4582  139.6503  159.8588 N.ar    1  UNL1       -0.1221
     28 N         139.1096  140.9032  160.6062 N.ar    1  UNL1       -0.1266
     29 C         140.3074  141.8057  160.5825 C.ar    1  UNL1        0.1862
     30 C         140.4001  143.1647  161.2106 C.ar    1  UNL1        0.1362
     31 C         141.2929  143.3839  162.3958 C.ar    1  UNL1        0.1211
     32 N         141.3855  144.7429  163.0239 N.ar    1  UNL1       -0.2390
     33 C         140.5852  145.8828  162.4667 C.ar    1  UNL1        0.1195
     34 C         139.6923  145.6636  161.2815 C.ar    1  UNL1        0.1196
     35 N         139.5998  144.3045  160.6534 N.ar    1  UNL1       -0.2375
@<TRIPOS>BOND
     1    24    25    1
     2    25    26   ar
     3    26    23    1
     4    23    22    1
     5    22    21    1
     6    21    20    1
     7    20     1    1
     8     1     2    1
     9     2     3    1
    10     3     4    1
    11     4     5    1
    12     5     6    1
    13     6     9    1
    14     9    10   ar
    15    10    11    1
    16    10    12   ar
    17    12    13   ar
    18    13    14   ar
    19    14    15   ar
    20    15    16    1
    21    16    17    1
    22    16    18    1
    23    16    19    1
    24     6     7    1
    25     7     8    1
    26    26    27   ar
    27    27    28   ar
    28    28    29   ar
    29    29    30    1
    30    30    31   ar
    31    31    32   ar
    32    32    33   ar
    33    33    34   ar
    34    34    35   ar
    35    29    25   ar
    36    35    30   ar
    37     8     1    1
    38     7     3    1
    39    15     9   ar
@<TRIPOS>MOLECULE
*****
 35 39 0 0 0
SMALL
GASTEIGER

@<TRIPOS>ATOM
      1 N         140.4759  142.5550  166.5940 N.3     1  UNL1       -0.2712
      2 C         141.0633  141.9248  167.8219 C.3     1  UNL1        0.0738
      3 C         141.8597  140.7283  167.3931 C.3     1  UNL1        0.0372
      4 C         142.7150  139.5993  167.8869 C.3     1  UNL1        0.0245
      5 C         143.1484  138.7921  166.6992 C.3     1  UNL1        0.0909
      6 N         142.5608  139.4223  165.4712 N.pl3   1  UNL1       -0.3060
      7 C         141.7645  140.6189  165.9001 C.3     1  UNL1        0.0901
      8 C         140.9092  141.7478  165.4062 C.3     1  UNL1        0.0921
      9 C         142.7386  138.9404  164.0619 C.ar    1  UNL1        0.0795
     10 C         143.9665  139.3202  163.2886 C.ar    1  UNL1        0.1533
     11 F         145.0168  140.1819  163.9247 F       1  UNL1       -0.2029
     12 C         144.1442  138.8384  161.8793 C.ar    1  UNL1        0.0309
     13 C         143.0940  137.9767  161.2432 C.ar    1  UNL1        0.0023
     14 C         141.8660  137.5969  162.0164 C.ar    1  UNL1        0.0052
     15 C         141.6883  138.0788  163.4258 C.ar    1  UNL1        0.0869
     16 C         140.4604  137.6990  164.1990 C.3     1  UNL1        0.4198
     17 F         139.2325  137.3192  164.9722 F       1  UNL1       -0.1658
     18 F         141.1905  136.5257  164.7822 F       1  UNL1       -0.1658
     19 F         139.7302  138.8724  163.6158 F       1  UNL1       -0.1658
     20 C         139.6075  143.7776  166.5598 C.3     1  UNL1        0.0731
     21 C         139.1585  144.3421  165.2446 C.3     1  UNL1        0.0294
     22 C         137.9539  143.7723  164.5558 C.3     1  UNL1        0.0666
     23 S         137.8272  143.8688  163.0644 S.3     1  UNL1       -0.0756
     24 C         140.0935  141.8340  161.8927 C.3     1  UNL1        0.1340
     25 N         140.0568  143.3205  161.6957 N.ar    1  UNL1       -0.2872
     26 C         139.0151  144.2558  162.2343 C.ar    1  UNL1        0.1933
     27 N         139.3698  145.6461  161.7970 N.ar    1  UNL1       -0.1221
     28 N         140.6308  145.5701  160.9882 N.ar    1  UNL1       -0.1266
     29 C         141.0554  144.1328  160.9256 C.ar    1  UNL1        0.1862
     30 C         142.2660  143.6012  160.2172 C.ar    1  UNL1        0.1362
     31 C         143.4237  143.0676  161.0079 C.ar    1  UNL1        0.1211
     32 N         144.6343  142.5360  160.2995 N.ar    1  UNL1       -0.2390
     33 C         144.6872  142.5379  158.8004 C.ar    1  UNL1        0.1195
     34 C         143.5296  143.0715  158.0097 C.ar    1  UNL1        0.1196
     35 N         142.3190  143.6031  158.7182 N.ar    1  UNL1       -0.2375
@<TRIPOS>BOND
     1    24    25    1
     2    25    26   ar
     3    26    23    1
     4    23    22    1
     5    22    21    1
     6    21    20    1
     7    20     1    1
     8     1     2    1
     9     2     3    1
    10     3     4    1
    11     4     5    1
    12     5     6    1
    13     6     9    1
    14     9    10   ar
    15    10    11    1
    16    10    12   ar
    17    12    13   ar
    18    13    14   ar
    19    14    15   ar
    20    15    16    1
    21    16    17    1
    22    16    18    1
    23    16    19    1
    24     6     7    1
    25     7     8    1
    26    26    27   ar
    27    27    28   ar
    28    28    29   ar
    29    29    30    1
    30    30    31   ar
    31    31    32   ar
    32    32    33   ar
    33    33    34   ar
    34    34    35   ar
    35    29    25   ar
    36    35    30   ar
    37     8     1    1
    38     7     3    1
    39    15     9   ar
@<TRIPOS>MOLECULE
*****
 35 39 0 0 0
SMALL
GASTEIGER

@<TRIPOS>ATOM
      1 N         138.6843  140.9480  160.7487 N.3     1  UNL1       -0.2712
      2 C         138.5585  142.1256  159.8282 C.3     1  UNL1        0.0738
      3 C         139.6961  143.0607  160.1137 C.3     1  UNL1        0.0372
      4 C         140.3214  144.3664  159.7212 C.3     1  UNL1        0.0245
      5 C         141.5368  144.5737  160.5756 C.3     1  UNL1        0.0909
      6 N         141.6625  143.3961  161.4962 N.pl3   1  UNL1       -0.3060
      7 C         140.5249  142.4610  161.2107 C.3     1  UNL1        0.0901
      8 C         139.8996  141.1553  161.6032 C.3     1  UNL1        0.0921
      9 C         142.7372  143.1898  162.5221 C.ar    1  UNL1        0.0795
     10 C         144.0205  142.5145  162.1387 C.ar    1  UNL1        0.1533
     11 F         144.2292  142.0454  160.7292 F       1  UNL1       -0.2029
     12 C         145.0952  142.3082  163.1646 C.ar    1  UNL1        0.0309
     13 C         144.8866  142.7772  164.5740 C.ar    1  UNL1        0.0023
     14 C         143.6032  143.4525  164.9575 C.ar    1  UNL1        0.0052
     15 C         142.5285  143.6588  163.9316 C.ar    1  UNL1        0.0869
     16 C         141.2453  144.3341  164.3151 C.3     1  UNL1        0.4198
     17 F         139.9620  145.0094  164.6986 F       1  UNL1       -0.1658
     18 F         140.6400  143.0003  164.6384 F       1  UNL1       -0.1658
     19 F         141.8505  145.6680  163.9918 F       1  UNL1       -0.1658
     20 C         137.7575  139.7699  160.8050 C.3     1  UNL1        0.0731
     21 C         137.7241  138.8996  162.0262 C.3     1  UNL1        0.0294
     22 C         138.8962  138.0231  162.3550 C.3     1  UNL1        0.0666
     23 S         139.1745  137.6462  163.7799 S.3     1  UNL1       -0.0756
     24 C         137.9224  138.9232  166.5096 C.3     1  UNL1        0.1340
     25 N         139.2841  139.2062  165.9477 N.ar    1  UNL1       -0.2872
     26 C         139.8596  138.6192  164.6930 C.ar    1  UNL1        0.1933
     27 N         141.2405  139.1761  164.5116 N.ar    1  UNL1       -0.1221
     28 N         141.5185  140.1073  165.6542 N.ar    1  UNL1       -0.1266
     29 C         140.3094  140.1260  166.5418 C.ar    1  UNL1        0.1862
     30 C         140.1530  140.9242  167.8022 C.ar    1  UNL1        0.1362
     31 C         139.5628  140.2870  169.0251 C.ar    1  UNL1        0.1211
     32 N         139.4064  141.0852  170.2854 N.ar    1  UNL1       -0.2390
     33 C         139.8403  142.5206  170.3227 C.ar    1  UNL1        0.1195
     34 C         140.4306  143.1578  169.0998 C.ar    1  UNL1        0.1196
     35 N         140.5869  142.3595  167.8395 N.ar    1  UNL1       -0.2375
@<TRIPOS>BOND
     1    24    25    1
     2    25    26   ar
     3    26    23    1
     4    23    22    1
     5    22    21    1
     6    21    20    1
     7    20     1    1
     8     1     2    1
     9     2     3    1
    10     3     4    1
    11     4     5    1
    12     5     6    1
    13     6     9    1
    14     9    10   ar
    15    10    11    1
    16    10    12   ar
    17    12    13   ar
    18    13    14   ar
    19    14    15   ar
    20    15    16    1
    21    16    17    1
    22    16    18    1
    23    16    19    1
    24     6     7    1
    25     7     8    1
    26    26    27   ar
    27    27    28   ar
    28    28    29   ar
    29    29    30    1
    30    30    31   ar
    31    31    32   ar
    32    32    33   ar
    33    33    34   ar
    34    34    35   ar
    35    29    25   ar
    36    35    30   ar
    37     8     1    1
    38     7     3    1
    39    15     9   ar
@<TRIPOS>MOLECULE
*****
 35 39 0 0 0
SMALL
GASTEIGER

@<TRIPOS>ATOM
      1 N         141.9356  142.0467  160.0733 N.3     1  UNL1       -0.2712
      2 C         140.9569  141.7590  158.9735 C.3     1  UNL1        0.0738
      3 C         139.8146  140.9841  159.5606 C.3     1  UNL1        0.0372
      4 C         138.5037  140.3275  159.2437 C.3     1  UNL1        0.0245
      5 C         137.9661  139.7304  160.5104 C.3     1  UNL1        0.0909
      6 N         138.9448  140.0181  161.6102 N.pl3   1  UNL1       -0.3060
      7 C         140.0872  140.7930  161.0232 C.3     1  UNL1        0.0901
      8 C         141.3980  141.4497  161.3401 C.3     1  UNL1        0.0921
      9 C         138.8055  139.6038  163.0451 C.ar    1  UNL1        0.0795
     10 C         139.1715  138.2102  163.4623 C.ar    1  UNL1        0.1533
     11 F         139.6768  137.2309  162.4445 F       1  UNL1       -0.2029
     12 C         139.0322  137.7958  164.8971 C.ar    1  UNL1        0.0309
     13 C         138.5270  138.7750  165.9149 C.ar    1  UNL1        0.0023
     14 C         138.1610  140.1687  165.4978 C.ar    1  UNL1        0.0052
     15 C         138.3003  140.5830  164.0629 C.ar    1  UNL1        0.0869
     16 C         137.9343  141.9766  163.6458 C.3     1  UNL1        0.4198
     17 F         137.5683  143.3701  163.2287 F       1  UNL1       -0.1658
     18 F         136.5879  141.4892  163.1989 F       1  UNL1       -0.1658
     19 F         139.2807  142.4640  164.0927 F       1  UNL1       -0.1658
     20 C         143.2253  142.7993  159.9313 C.3     1  UNL1        0.0731
     21 C         144.4691  142.2878  160.5956 C.3     1  UNL1        0.0294
     22 C         144.7949  142.7035  161.9996 C.3     1  UNL1        0.0666
     23 S         145.1992  141.6733  163.0121 S.3     1  UNL1       -0.0756
     24 C         144.4843  143.6997  165.4681 C.3     1  UNL1        0.1340
     25 N         143.9705  142.3003  165.3016 N.ar    1  UNL1       -0.2872
     26 C         144.2991  141.3689  164.1727 C.ar    1  UNL1        0.1933
     27 N         143.5696  140.0796  164.4082 N.ar    1  UNL1       -0.1221
     28 N         142.7901  140.2142  165.6827 N.ar    1  UNL1       -0.1266
     29 C         143.0378  141.5867  166.2349 C.ar    1  UNL1        0.1862
     30 C         142.4553  142.1471  167.4985 C.ar    1  UNL1        0.1362
     31 C         140.9909  142.4634  167.5734 C.ar    1  UNL1        0.1211
     32 N         140.4083  143.0238  168.8370 N.ar    1  UNL1       -0.2390
     33 C         141.2902  143.2679  170.0256 C.ar    1  UNL1        0.1195
     34 C         142.7546  142.9516  169.9507 C.ar    1  UNL1        0.1196
     35 N         143.3371  142.3912  168.6870 N.ar    1  UNL1       -0.2375
@<TRIPOS>BOND
     1    24    25    1
     2    25    26   ar
     3    26    23    1
     4    23    22    1
     5    22    21    1
     6    21    20    1
     7    20     1    1
     8     1     2    1
     9     2     3    1
    10     3     4    1
    11     4     5    1
    12     5     6    1
    13     6     9    1
    14     9    10   ar
    15    10    11    1
    16    10    12   ar
    17    12    13   ar
    18    13    14   ar
    19    14    15   ar
    20    15    16    1
    21    16    17    1
    22    16    18    1
    23    16    19    1
    24     6     7    1
    25     7     8    1
    26    26    27   ar
    27    27    28   ar
    28    28    29   ar
    29    29    30    1
    30    30    31   ar
    31    31    32   ar
    32    32    33   ar
    33    33    34   ar
    34    34    35   ar
    35    29    25   ar
    36    35    30   ar
    37     8     1    1
    38     7     3    1
    39    15     9   ar
