@<TRIPOS>MOLECULE
*****
 34 38 0 0 0
SMALL
GASTEIGER

@<TRIPOS>ATOM
      1 C         142.5986  137.9571  158.5222 C.ar    1  UNL1        0.2601
      2 N         142.1648  137.8714  159.9555 N.ar    1  UNL1       -0.1870
      3 C         143.0402  138.7856  160.7603 C.ar    1  UNL1        0.2036
      4 N         144.0152  139.4364  159.8243 N.ar    1  UNL1       -0.0556
      5 O         143.7423  138.9244  158.4411 O.2     1  UNL1       -0.3324
      6 C         142.9557  139.0098  162.2411 C.ar    1  UNL1        0.0392
      7 C         144.2095  139.0868  163.0608 C.ar    1  UNL1        0.0046
      8 C         144.1248  139.3109  164.5415 C.ar    1  UNL1        0.0173
      9 C         142.7864  139.4581  165.2025 C.ar    1  UNL1        0.0596
     10 C         141.5326  139.3812  164.3828 C.ar    1  UNL1        0.0170
     11 C         141.6172  139.1570  162.9021 C.ar    1  UNL1        0.0046
     12 C         140.3638  139.5613  165.3055 C.ar    1  UNL1        0.0142
     13 C         140.8952  139.7496  166.6955 C.ar    1  UNL1        0.0371
     14 N         142.3925  139.6859  166.6319 N.ar    1  UNL1       -0.3306
     15 C         142.9239  139.8741  168.0218 C.3     1  UNL1        0.1061
     16 C         141.7551  140.0543  168.9445 C.3     1  UNL1        0.0307
     17 C         140.5013  139.9773  168.1248 C.3     1  UNL1        0.0458
     18 C         139.0996  140.1055  168.6434 C.3     1  UNL1        0.0476
     19 C         138.8612  140.4324  170.0878 C.2     1  UNL1        0.0507
     20 O         138.4096  139.3603  171.0346 O.co2   1  UNL1       -0.5492
     21 O         139.0745  141.8313  170.5853 O.co2   1  UNL1       -0.5492
     22 C         140.0540  136.8667  155.6786 C.ar    1  UNL1        0.0716
     23 C         140.7873  135.7075  155.0714 C.ar    1  UNL1        0.0475
     24 C         142.1243  135.2982  155.6144 C.ar    1  UNL1        0.1476
     25 C         142.7280  136.0481  156.7647 C.ar    1  UNL1        0.0420
     26 C         141.9948  137.2072  157.3719 C.ar    1  UNL1        0.0598
     27 C         140.6578  137.6165  156.8288 C.ar    1  UNL1        0.0152
     28 N         137.3801  137.6852  154.5924 N.1     1  UNL1       -0.1908
     29 C         138.7171  137.2760  155.1355 C.1     1  UNL1        0.1005
     30 O         142.8575  134.1390  155.0072 O.3     1  UNL1       -0.4044
     31 C         143.0083  132.8606  155.7771 C.3     1  UNL1        0.5753
     32 F         143.1591  131.5821  156.5472 F       1  UNL1       -0.1328
     33 F         141.5175  132.7676  155.9147 F       1  UNL1       -0.1328
     34 F         144.4990  132.9535  155.6396 F       1  UNL1       -0.1328
@<TRIPOS>UNITY_ATOM_ATTR
20 1
charge -1
@<TRIPOS>BOND
     1    28    29    3
     2    29    22    1
     3    22    23   ar
     4    23    24   ar
     5    24    30    1
     6    30    31    1
     7    31    32    1
     8    31    33    1
     9    31    34    1
    10    24    25   ar
    11    25    26   ar
    12    26     1    1
    13     1     2   ar
    14     2     3   ar
    15     3     6    1
    16     6     7   ar
    17     7     8   ar
    18     8     9   ar
    19     9    10   ar
    20    10    11   ar
    21    10    12   ar
    22    12    13   ar
    23    13    14   ar
    24    14    15    1
    25    15    16    1
    26    16    17    1
    27    17    18    1
    28    18    19    1
    29    19    20   ar
    30    19    21   ar
    31     3     4   ar
    32     4     5   ar
    33    26    27   ar
    34    27    22   ar
    35     5     1   ar
    36    11     6   ar
    37    17    13    1
    38    14     9   ar
@<TRIPOS>MOLECULE
*****
 34 38 0 0 0
SMALL
GASTEIGER

@<TRIPOS>ATOM
      1 C         140.6416  145.3316  158.5294 C.ar    1  UNL1        0.2601
      2 N         139.8099  144.3931  159.3525 N.ar    1  UNL1       -0.1870
      3 C         140.5980  144.0257  160.5748 C.ar    1  UNL1        0.2036
      4 N         141.9169  144.7372  160.5071 N.ar    1  UNL1       -0.0556
      5 O         141.9438  145.5443  159.2430 O.2     1  UNL1       -0.3324
      6 C         140.1466  143.1080  161.6721 C.ar    1  UNL1        0.0392
      7 C         139.1244  142.0472  161.3897 C.ar    1  UNL1        0.0046
      8 C         138.6731  141.1296  162.4870 C.ar    1  UNL1        0.0173
      9 C         139.2439  141.2727  163.8668 C.ar    1  UNL1        0.0596
     10 C         140.2661  142.3335  164.1492 C.ar    1  UNL1        0.0170
     11 C         140.7175  143.2512  163.0518 C.ar    1  UNL1        0.0046
     12 C         140.6476  142.2360  165.5966 C.ar    1  UNL1        0.0142
     13 C         139.8611  141.1150  166.2087 C.ar    1  UNL1        0.0371
     14 N         138.9936  140.5196  165.1397 N.ar    1  UNL1       -0.3306
     15 C         138.2072  139.3986  165.7518 C.3     1  UNL1        0.1061
     16 C         138.5886  139.3011  167.1992 C.3     1  UNL1        0.0307
     17 C         139.6108  140.3619  167.4816 C.3     1  UNL1        0.0458
     18 C         140.2675  140.6237  168.8046 C.3     1  UNL1        0.0476
     19 C         139.4288  140.8145  170.0335 C.2     1  UNL1        0.0507
     20 O         138.8378  139.6249  170.7303 O.co2   1  UNL1       -0.5492
     21 O         139.1811  142.1949  170.5656 O.co2   1  UNL1       -0.5492
     22 C         140.2883  145.9460  154.6246 C.ar    1  UNL1        0.0716
     23 C         139.4411  147.1838  154.6080 C.ar    1  UNL1        0.0475
     24 C         138.9941  147.8041  155.8984 C.ar    1  UNL1        0.1476
     25 C         139.3943  147.1867  157.2056 C.ar    1  UNL1        0.0420
     26 C         140.2414  145.9490  157.2223 C.ar    1  UNL1        0.0598
     27 C         140.6884  145.3287  155.9317 C.ar    1  UNL1        0.0152
     28 N         141.1822  144.7054  152.0436 N.1     1  UNL1       -0.1908
     29 C         140.7353  145.3257  153.3341 C.1     1  UNL1        0.1005
     30 O         138.1469  149.0419  155.8818 O.3     1  UNL1       -0.4044
     31 C         138.5177  150.2160  156.7384 C.3     1  UNL1        0.5753
     32 F         138.8885  151.3903  157.5951 F       1  UNL1       -0.1328
     33 F         139.3726  150.7548  155.6299 F       1  UNL1       -0.1328
     34 F         137.6628  149.6773  157.8469 F       1  UNL1       -0.1328
@<TRIPOS>UNITY_ATOM_ATTR
20 1
charge -1
@<TRIPOS>BOND
     1    28    29    3
     2    29    22    1
     3    22    23   ar
     4    23    24   ar
     5    24    30    1
     6    30    31    1
     7    31    32    1
     8    31    33    1
     9    31    34    1
    10    24    25   ar
    11    25    26   ar
    12    26     1    1
    13     1     2   ar
    14     2     3   ar
    15     3     6    1
    16     6     7   ar
    17     7     8   ar
    18     8     9   ar
    19     9    10   ar
    20    10    11   ar
    21    10    12   ar
    22    12    13   ar
    23    13    14   ar
    24    14    15    1
    25    15    16    1
    26    16    17    1
    27    17    18    1
    28    18    19    1
    29    19    20   ar
    30    19    21   ar
    31     3     4   ar
    32     4     5   ar
    33    26    27   ar
    34    27    22   ar
    35     5     1   ar
    36    11     6   ar
    37    17    13    1
    38    14     9   ar
@<TRIPOS>MOLECULE
*****
 34 38 0 0 0
SMALL
GASTEIGER

@<TRIPOS>ATOM
      1 C         143.8747  142.5050  159.6285 C.ar    1  UNL1        0.2601
      2 N         144.0807  141.9577  161.0097 N.ar    1  UNL1       -0.1870
      3 C         143.4479  142.9069  161.9836 C.ar    1  UNL1        0.2036
      4 N         142.8507  144.0409  161.2042 N.ar    1  UNL1       -0.0556
      5 O         143.1145  143.7925  159.7487 O.2     1  UNL1       -0.3324
      6 C         143.4176  142.7497  163.4751 C.ar    1  UNL1        0.0392
      7 C         144.4312  143.4574  164.3246 C.ar    1  UNL1        0.0046
      8 C         144.4008  143.3002  165.8160 C.ar    1  UNL1        0.0173
      9 C         143.3568  142.4354  166.4579 C.ar    1  UNL1        0.0596
     10 C         142.3432  141.7277  165.6084 C.ar    1  UNL1        0.0170
     11 C         142.3736  141.8848  164.1170 C.ar    1  UNL1        0.0046
     12 C         141.4401  140.9478  166.5174 C.ar    1  UNL1        0.0142
     13 C         141.8955  141.1735  167.9286 C.ar    1  UNL1        0.0371
     14 N         143.0802  142.0929  167.8919 N.ar    1  UNL1       -0.3306
     15 C         143.5356  142.3186  169.3031 C.3     1  UNL1        0.1061
     16 C         142.6325  141.5387  170.2120 C.3     1  UNL1        0.0307
     17 C         141.6188  140.8310  169.3625 C.3     1  UNL1        0.0458
     18 C         140.5212  139.9376  169.8596 C.3     1  UNL1        0.0476
     19 C         139.2229  140.5303  170.3214 C.2     1  UNL1        0.0507
     20 O         138.0342  139.6450  170.5518 O.co2   1  UNL1       -0.5492
     21 O         139.1134  142.0084  170.5527 O.co2   1  UNL1       -0.5492
     22 C         144.1760  139.9834  156.5788 C.ar    1  UNL1        0.0716
     23 C         145.2887  140.6162  155.7967 C.ar    1  UNL1        0.0475
     24 C         145.9301  141.8784  156.2919 C.ar    1  UNL1        0.1476
     25 C         145.4587  142.5080  157.5692 C.ar    1  UNL1        0.0420
     26 C         144.3460  141.8754  158.3512 C.ar    1  UNL1        0.0598
     27 C         143.7047  140.6131  157.8559 C.ar    1  UNL1        0.0152
     28 N         142.8933  137.4588  155.5883 N.1     1  UNL1       -0.1908
     29 C         143.5346  138.7211  156.0835 C.1     1  UNL1        0.1005
     30 O         147.0428  142.5111  155.5098 O.3     1  UNL1       -0.4044
     31 C         148.4302  141.9464  155.5886 C.3     1  UNL1        0.5753
     32 F         149.8177  141.3818  155.6675 F       1  UNL1       -0.1328
     33 F         148.5574  142.4551  156.9940 F       1  UNL1       -0.1328
     34 F         148.3031  141.4378  154.1833 F       1  UNL1       -0.1328
@<TRIPOS>UNITY_ATOM_ATTR
20 1
charge -1
@<TRIPOS>BOND
     1    28    29    3
     2    29    22    1
     3    22    23   ar
     4    23    24   ar
     5    24    30    1
     6    30    31    1
     7    31    32    1
     8    31    33    1
     9    31    34    1
    10    24    25   ar
    11    25    26   ar
    12    26     1    1
    13     1     2   ar
    14     2     3   ar
    15     3     6    1
    16     6     7   ar
    17     7     8   ar
    18     8     9   ar
    19     9    10   ar
    20    10    11   ar
    21    10    12   ar
    22    12    13   ar
    23    13    14   ar
    24    14    15    1
    25    15    16    1
    26    16    17    1
    27    17    18    1
    28    18    19    1
    29    19    20   ar
    30    19    21   ar
    31     3     4   ar
    32     4     5   ar
    33    26    27   ar
    34    27    22   ar
    35     5     1   ar
    36    11     6   ar
    37    17    13    1
    38    14     9   ar
@<TRIPOS>MOLECULE
*****
 34 38 0 0 0
SMALL
GASTEIGER

@<TRIPOS>ATOM
      1 C         140.4753  145.6206  159.2310 C.ar    1  UNL1        0.2601
      2 N         141.2158  144.7504  160.2029 N.ar    1  UNL1       -0.1870
      3 C         140.6526  144.9996  161.5706 C.ar    1  UNL1        0.2036
      4 N         139.5640  146.0238  161.4441 N.ar    1  UNL1       -0.0556
      5 O         139.4544  146.4076  159.9981 O.2     1  UNL1       -0.3324
      6 C         141.0995  144.3404  162.8418 C.ar    1  UNL1        0.0392
      7 C         142.5028  144.5353  163.3345 C.ar    1  UNL1        0.0046
      8 C         142.9496  143.8761  164.6056 C.ar    1  UNL1        0.0173
      9 C         141.9932  143.0220  165.3839 C.ar    1  UNL1        0.0596
     10 C         140.5900  142.8270  164.8911 C.ar    1  UNL1        0.0170
     11 C         140.1432  143.4862  163.6201 C.ar    1  UNL1        0.0046
     12 C         139.8766  141.9358  165.8642 C.ar    1  UNL1        0.0142
     13 C         140.8390  141.5799  166.9584 C.ar    1  UNL1        0.0371
     14 N         142.1472  142.2512  166.6616 N.ar    1  UNL1       -0.3306
     15 C         143.1095  141.8953  167.7557 C.3     1  UNL1        0.1061
     16 C         142.3961  141.0041  168.7288 C.3     1  UNL1        0.0307
     17 C         140.9929  140.8092  168.2360 C.3     1  UNL1        0.0458
     18 C         139.9300  139.9877  168.9036 C.3     1  UNL1        0.0476
     19 C         139.0638  140.6006  169.9638 C.2     1  UNL1        0.0507
     20 O         139.4241  141.9341  170.5484 O.co2   1  UNL1       -0.5492
     21 O         137.8372  139.8799  170.4393 O.co2   1  UNL1       -0.5492
     22 C         142.0343  144.9326  155.6469 C.ar    1  UNL1        0.0716
     23 C         141.1908  145.8328  154.7934 C.ar    1  UNL1        0.0475
     24 C         140.1089  146.6622  155.4191 C.ar    1  UNL1        0.1476
     25 C         139.8704  146.5914  156.8983 C.ar    1  UNL1        0.0420
     26 C         140.7138  145.6913  157.7518 C.ar    1  UNL1        0.0598
     27 C         141.7958  144.8620  157.1260 C.ar    1  UNL1        0.0152
     28 N         144.1981  143.2739  154.3953 N.1     1  UNL1       -0.1908
     29 C         143.1162  144.1033  155.0211 C.1     1  UNL1        0.1005
     30 O         139.2655  147.5623  154.5656 O.3     1  UNL1       -0.4044
     31 C         139.4994  149.0438  154.5789 C.3     1  UNL1        0.5753
     32 F         139.7334  150.5255  154.5922 F       1  UNL1       -0.1328
     33 F         140.6515  148.8704  153.6342 F       1  UNL1       -0.1328
     34 F         138.3474  149.2173  155.5236 F       1  UNL1       -0.1328
@<TRIPOS>UNITY_ATOM_ATTR
20 1
charge -1
@<TRIPOS>BOND
     1    28    29    3
     2    29    22    1
     3    22    23   ar
     4    23    24   ar
     5    24    30    1
     6    30    31    1
     7    31    32    1
     8    31    33    1
     9    31    34    1
    10    24    25   ar
    11    25    26   ar
    12    26     1    1
    13     1     2   ar
    14     2     3   ar
    15     3     6    1
    16     6     7   ar
    17     7     8   ar
    18     8     9   ar
    19     9    10   ar
    20    10    11   ar
    21    10    12   ar
    22    12    13   ar
    23    13    14   ar
    24    14    15    1
    25    15    16    1
    26    16    17    1
    27    17    18    1
    28    18    19    1
    29    19    20   ar
    30    19    21   ar
    31     3     4   ar
    32     4     5   ar
    33    26    27   ar
    34    27    22   ar
    35     5     1   ar
    36    11     6   ar
    37    17    13    1
    38    14     9   ar
@<TRIPOS>MOLECULE
*****
 34 38 0 0 0
SMALL
GASTEIGER

@<TRIPOS>ATOM
      1 C         140.4355  142.7293  164.8147 C.ar    1  UNL1        0.2601
      2 N         139.9076  142.4157  163.4461 N.ar    1  UNL1       -0.1870
      3 C         140.3632  143.4990  162.5140 C.ar    1  UNL1        0.2036
      4 N         141.1728  144.4821  163.3065 N.ar    1  UNL1       -0.0556
      5 O         141.2175  144.0065  164.7284 O.2     1  UNL1       -0.3324
      6 C         140.0622  143.5841  161.0469 C.ar    1  UNL1        0.0392
      7 C         139.2780  142.4946  160.3777 C.ar    1  UNL1        0.0046
      8 C         138.9770  142.5798  158.9108 C.ar    1  UNL1        0.0173
      9 C         139.4603  143.7546  158.1130 C.ar    1  UNL1        0.0596
     10 C         140.2445  144.8441  158.7822 C.ar    1  UNL1        0.0170
     11 C         140.5455  144.7589  160.2492 C.ar    1  UNL1        0.0046
     12 C         140.5869  145.8726  157.7454 C.ar    1  UNL1        0.0142
     13 C         140.0143  145.4187  156.4354 C.ar    1  UNL1        0.0371
     14 N         139.3180  144.1097  156.6625 N.ar    1  UNL1       -0.3306
     15 C         138.7454  143.6559  155.3526 C.3     1  UNL1        0.1061
     16 C         139.0878  144.6843  154.3158 C.3     1  UNL1        0.0307
     17 C         139.8720  145.7739  154.9850 C.3     1  UNL1        0.0458
     18 C         140.4181  147.0028  154.3205 C.3     1  UNL1        0.0476
     19 C         139.7725  148.3352  154.5609 C.2     1  UNL1        0.0507
     20 O         140.2089  149.5335  153.7712 O.co2   1  UNL1       -0.5492
     21 O         138.6903  148.4693  155.5910 O.co2   1  UNL1       -0.5492
     22 C         139.0248  139.9533  167.2751 C.ar    1  UNL1        0.0716
     23 C         139.7872  140.2706  168.5274 C.ar    1  UNL1        0.0475
     24 C         140.7657  141.4074  168.5421 C.ar    1  UNL1        0.1476
     25 C         140.9817  142.2270  167.3045 C.ar    1  UNL1        0.0420
     26 C         140.2194  141.9097  166.0522 C.ar    1  UNL1        0.0598
     27 C         139.2409  140.7729  166.0376 C.ar    1  UNL1        0.0152
     28 N         137.0679  137.6797  167.2458 N.1     1  UNL1       -0.1908
     29 C         138.0463  138.8165  167.2604 C.1     1  UNL1        0.1005
     30 O         141.5280  141.7246  169.7943 O.3     1  UNL1       -0.4044
     31 C         142.9663  142.1422  169.7112 C.3     1  UNL1        0.5753
     32 F         144.4047  142.5598  169.6281 F       1  UNL1       -0.1328
     33 F         143.3434  140.7570  169.2766 F       1  UNL1       -0.1328
     34 F         142.5893  143.5274  170.1459 F       1  UNL1       -0.1328
@<TRIPOS>UNITY_ATOM_ATTR
20 1
charge -1
@<TRIPOS>BOND
     1    28    29    3
     2    29    22    1
     3    22    23   ar
     4    23    24   ar
     5    24    30    1
     6    30    31    1
     7    31    32    1
     8    31    33    1
     9    31    34    1
    10    24    25   ar
    11    25    26   ar
    12    26     1    1
    13     1     2   ar
    14     2     3   ar
    15     3     6    1
    16     6     7   ar
    17     7     8   ar
    18     8     9   ar
    19     9    10   ar
    20    10    11   ar
    21    10    12   ar
    22    12    13   ar
    23    13    14   ar
    24    14    15    1
    25    15    16    1
    26    16    17    1
    27    17    18    1
    28    18    19    1
    29    19    20   ar
    30    19    21   ar
    31     3     4   ar
    32     4     5   ar
    33    26    27   ar
    34    27    22   ar
    35     5     1   ar
    36    11     6   ar
    37    17    13    1
    38    14     9   ar
@<TRIPOS>MOLECULE
*****
 34 38 0 0 0
SMALL
GASTEIGER

@<TRIPOS>ATOM
      1 C         143.9329  142.2871  159.3155 C.ar    1  UNL1        0.2601
      2 N         144.1530  141.7948  160.7152 N.ar    1  UNL1       -0.1870
      3 C         143.5510  142.7941  161.6581 C.ar    1  UNL1        0.2036
      4 N         142.9589  143.9040  160.8411 N.ar    1  UNL1       -0.0556
      5 O         143.1949  143.5907  159.3933 O.2     1  UNL1       -0.3324
      6 C         143.5425  142.7000  163.1552 C.ar    1  UNL1        0.0392
      7 C         144.4333  143.5922  163.9677 C.ar    1  UNL1        0.0046
      8 C         144.4248  143.4981  165.4647 C.ar    1  UNL1        0.0173
      9 C         143.5255  142.5118  166.1491 C.ar    1  UNL1        0.0596
     10 C         142.6347  141.6195  165.3366 C.ar    1  UNL1        0.0170
     11 C         142.6432  141.7136  163.8396 C.ar    1  UNL1        0.0046
     12 C         141.8610  140.7506  166.2833 C.ar    1  UNL1        0.0142
     13 C         142.2737  141.1057  167.6810 C.ar    1  UNL1        0.0371
     14 N         143.3024  142.1942  167.5981 N.ar    1  UNL1       -0.3306
     15 C         143.7150  142.5494  168.9958 C.3     1  UNL1        0.1061
     16 C         142.9413  141.6804  169.9425 C.3     1  UNL1        0.0307
     17 C         142.0505  140.7882  169.1299 C.3     1  UNL1        0.0458
     18 C         141.1029  139.7591  169.6712 C.3     1  UNL1        0.0476
     19 C         140.0782  140.1480  170.6952 C.2     1  UNL1        0.0507
     20 O         138.6338  139.8066  170.4781 O.co2   1  UNL1       -0.5492
     21 O         140.4979  140.8784  171.9364 O.co2   1  UNL1       -0.5492
     22 C         146.0589  141.3570  156.0960 C.ar    1  UNL1        0.0716
     23 C         145.2548  140.2168  155.5451 C.ar    1  UNL1        0.0475
     24 C         144.0101  139.7667  156.2509 C.ar    1  UNL1        0.1476
     25 C         143.5695  140.4568  157.5077 C.ar    1  UNL1        0.0420
     26 C         144.3736  141.5970  158.0587 C.ar    1  UNL1        0.0598
     27 C         145.6182  142.0470  157.3528 C.ar    1  UNL1        0.0152
     28 N         148.5482  142.2571  154.6842 N.1     1  UNL1       -0.1908
     29 C         147.3035  141.8071  155.3901 C.1     1  UNL1        0.1005
     30 O         143.2061  138.6266  155.6999 O.3     1  UNL1       -0.4044
     31 C         143.4263  137.2354  156.2158 C.3     1  UNL1        0.5753
     32 F         143.6464  135.8441  156.7316 F       1  UNL1       -0.1328
     33 F         142.1903  137.3519  157.0576 F       1  UNL1       -0.1328
     34 F         144.6623  137.1188  155.3740 F       1  UNL1       -0.1328
@<TRIPOS>UNITY_ATOM_ATTR
20 1
charge -1
@<TRIPOS>BOND
     1    28    29    3
     2    29    22    1
     3    22    23   ar
     4    23    24   ar
     5    24    30    1
     6    30    31    1
     7    31    32    1
     8    31    33    1
     9    31    34    1
    10    24    25   ar
    11    25    26   ar
    12    26     1    1
    13     1     2   ar
    14     2     3   ar
    15     3     6    1
    16     6     7   ar
    17     7     8   ar
    18     8     9   ar
    19     9    10   ar
    20    10    11   ar
    21    10    12   ar
    22    12    13   ar
    23    13    14   ar
    24    14    15    1
    25    15    16    1
    26    16    17    1
    27    17    18    1
    28    18    19    1
    29    19    20   ar
    30    19    21   ar
    31     3     4   ar
    32     4     5   ar
    33    26    27   ar
    34    27    22   ar
    35     5     1   ar
    36    11     6   ar
    37    17    13    1
    38    14     9   ar
@<TRIPOS>MOLECULE
*****
 34 38 0 0 0
SMALL
GASTEIGER

@<TRIPOS>ATOM
      1 C         138.0393  141.4485  158.6845 C.ar    1  UNL1        0.2601
      2 N         138.1835  140.7053  159.9794 N.ar    1  UNL1       -0.1870
      3 C         138.4918  141.7041  161.0552 C.ar    1  UNL1        0.2036
      4 N         138.5382  143.0646  160.4252 N.ar    1  UNL1       -0.0556
      5 O         138.2585  142.9067  158.9600 O.2     1  UNL1       -0.3324
      6 C         138.7146  141.3964  162.5064 C.ar    1  UNL1        0.0392
      7 C         138.2755  140.0772  163.0694 C.ar    1  UNL1        0.0046
      8 C         138.4983  139.7696  164.5205 C.ar    1  UNL1        0.0173
      9 C         139.1602  140.7812  165.4085 C.ar    1  UNL1        0.0596
     10 C         139.5993  142.1003  164.8455 C.ar    1  UNL1        0.0170
     11 C         139.3765  142.4079  163.3945 C.ar    1  UNL1        0.0046
     12 C         140.2208  142.8944  165.9560 C.ar    1  UNL1        0.0142
     13 C         140.1658  142.0660  167.2053 C.ar    1  UNL1        0.0371
     14 N         139.5103  140.7600  166.8670 N.ar    1  UNL1       -0.3306
     15 C         139.4553  139.9317  168.1163 C.3     1  UNL1        0.1061
     16 C         140.0768  140.7258  169.2267 C.3     1  UNL1        0.0307
     17 C         140.5159  142.0449  168.6637 C.3     1  UNL1        0.0458
     18 C         141.1873  143.1491  169.4254 C.3     1  UNL1        0.0476
     19 C         142.2882  142.8310  170.3932 C.2     1  UNL1        0.0507
     20 O         143.7194  142.8963  169.9490 O.co2   1  UNL1       -0.5492
     21 O         141.9580  142.4475  171.8053 O.co2   1  UNL1       -0.5492
     22 C         138.4897  139.4994  155.2570 C.ar    1  UNL1        0.0716
     23 C         137.1120  139.6242  154.6768 C.ar    1  UNL1        0.0475
     24 C         136.0435  140.3571  155.4325 C.ar    1  UNL1        0.1476
     25 C         136.3526  140.9652  156.7684 C.ar    1  UNL1        0.0420
     26 C         137.7302  140.8404  157.3486 C.ar    1  UNL1        0.0598
     27 C         138.7987  140.1075  156.5928 C.ar    1  UNL1        0.0152
     28 N         140.6267  138.0335  153.7455 N.1     1  UNL1       -0.1908
     29 C         139.5582  138.7664  154.5012 C.1     1  UNL1        0.1005
     30 O         134.6659  140.4819  154.8523 O.3     1  UNL1       -0.4044
     31 C         133.4636  140.2427  155.7167 C.3     1  UNL1        0.5753
     32 F         132.2612  140.0035  156.5811 F       1  UNL1       -0.1328
     33 F         133.0245  141.6602  155.4982 F       1  UNL1       -0.1328
     34 F         133.9026  138.8251  155.9352 F       1  UNL1       -0.1328
@<TRIPOS>UNITY_ATOM_ATTR
20 1
charge -1
@<TRIPOS>BOND
     1    28    29    3
     2    29    22    1
     3    22    23   ar
     4    23    24   ar
     5    24    30    1
     6    30    31    1
     7    31    32    1
     8    31    33    1
     9    31    34    1
    10    24    25   ar
    11    25    26   ar
    12    26     1    1
    13     1     2   ar
    14     2     3   ar
    15     3     6    1
    16     6     7   ar
    17     7     8   ar
    18     8     9   ar
    19     9    10   ar
    20    10    11   ar
    21    10    12   ar
    22    12    13   ar
    23    13    14   ar
    24    14    15    1
    25    15    16    1
    26    16    17    1
    27    17    18    1
    28    18    19    1
    29    19    20   ar
    30    19    21   ar
    31     3     4   ar
    32     4     5   ar
    33    26    27   ar
    34    27    22   ar
    35     5     1   ar
    36    11     6   ar
    37    17    13    1
    38    14     9   ar
@<TRIPOS>MOLECULE
*****
 34 38 0 0 0
SMALL
GASTEIGER

@<TRIPOS>ATOM
      1 C         142.6523  142.6282  164.6142 C.ar    1  UNL1        0.2601
      2 N         142.0407  142.6069  163.2447 N.ar    1  UNL1       -0.1870
      3 C         142.8770  143.4730  162.3501 C.ar    1  UNL1        0.2036
      4 N         144.0054  144.0297  163.1667 N.ar    1  UNL1       -0.0556
      5 O         143.8665  143.5076  164.5660 O.2     1  UNL1       -0.3324
      6 C         142.6286  143.7364  160.8944 C.ar    1  UNL1        0.0392
      7 C         143.4993  143.0925  159.8565 C.ar    1  UNL1        0.0046
      8 C         143.2508  143.3558  158.4009 C.ar    1  UNL1        0.0173
      9 C         142.1316  144.2630  157.9832 C.ar    1  UNL1        0.0596
     10 C         141.2609  144.9069  159.0211 C.ar    1  UNL1        0.0170
     11 C         141.5094  144.6435  160.4767 C.ar    1  UNL1        0.0046
     12 C         140.2410  145.7485  158.3131 C.ar    1  UNL1        0.0142
     13 C         140.4812  145.6249  156.8377 C.ar    1  UNL1        0.0371
     14 N         141.6498  144.7068  156.6337 N.ar    1  UNL1       -0.3306
     15 C         141.8900  144.5831  155.1583 C.3     1  UNL1        0.1061
     16 C         140.8700  145.4248  154.4504 C.3     1  UNL1        0.0307
     17 C         139.9993  146.0686  155.4883 C.3     1  UNL1        0.0458
     18 C         138.8487  146.9938  155.2233 C.3     1  UNL1        0.0476
     19 C         138.9064  148.4166  155.6949 C.2     1  UNL1        0.0507
     20 O         138.5274  148.7549  157.1062 O.co2   1  UNL1       -0.5492
     21 O         139.3432  149.5011  154.7551 O.co2   1  UNL1       -0.5492
     22 C         140.3592  140.3713  166.9376 C.ar    1  UNL1        0.0716
     23 C         141.1142  140.4385  168.2321 C.ar    1  UNL1        0.0475
     24 C         142.3817  141.2356  168.3206 C.ar    1  UNL1        0.1476
     25 C         142.8944  141.9655  167.1147 C.ar    1  UNL1        0.0420
     26 C         142.1395  141.8983  165.8202 C.ar    1  UNL1        0.0598
     27 C         140.8719  141.1012  165.7318 C.ar    1  UNL1        0.0152
     28 N         137.8240  138.7772  166.7607 N.1     1  UNL1       -0.1908
     29 C         139.0916  139.5742  166.8492 C.1     1  UNL1        0.1005
     30 O         143.1366  141.3027  169.6151 O.3     1  UNL1       -0.4044
     31 C         143.3223  142.6203  170.3075 C.3     1  UNL1        0.5753
     32 F         143.5078  143.9380  171.0000 F       1  UNL1       -0.1328
     33 F         141.8650  142.6392  170.6624 F       1  UNL1       -0.1328
     34 F         144.7795  142.6016  169.9526 F       1  UNL1       -0.1328
@<TRIPOS>UNITY_ATOM_ATTR
20 1
charge -1
@<TRIPOS>BOND
     1    28    29    3
     2    29    22    1
     3    22    23   ar
     4    23    24   ar
     5    24    30    1
     6    30    31    1
     7    31    32    1
     8    31    33    1
     9    31    34    1
    10    24    25   ar
    11    25    26   ar
    12    26     1    1
    13     1     2   ar
    14     2     3   ar
    15     3     6    1
    16     6     7   ar
    17     7     8   ar
    18     8     9   ar
    19     9    10   ar
    20    10    11   ar
    21    10    12   ar
    22    12    13   ar
    23    13    14   ar
    24    14    15    1
    25    15    16    1
    26    16    17    1
    27    17    18    1
    28    18    19    1
    29    19    20   ar
    30    19    21   ar
    31     3     4   ar
    32     4     5   ar
    33    26    27   ar
    34    27    22   ar
    35     5     1   ar
    36    11     6   ar
    37    17    13    1
    38    14     9   ar
@<TRIPOS>MOLECULE
*****
 34 38 0 0 0
SMALL
GASTEIGER

@<TRIPOS>ATOM
      1 C         141.0077  144.2467  159.2476 C.ar    1  UNL1        0.2601
      2 N         140.6383  143.3421  160.3857 N.ar    1  UNL1       -0.1870
      3 C         141.7204  143.4337  161.4205 C.ar    1  UNL1        0.2036
      4 N         142.7584  144.3949  160.9219 N.ar    1  UNL1       -0.0556
      5 O         142.3180  144.8973  159.5790 O.2     1  UNL1       -0.3324
      6 C         141.7578  142.6939  162.7249 C.ar    1  UNL1        0.0392
      7 C         142.6685  141.5139  162.8921 C.ar    1  UNL1        0.0046
      8 C         142.7059  140.7743  164.1965 C.ar    1  UNL1        0.0173
      9 C         141.8325  141.2146  165.3337 C.ar    1  UNL1        0.0596
     10 C         140.9217  142.3947  165.1665 C.ar    1  UNL1        0.0170
     11 C         140.8844  143.1343  163.8622 C.ar    1  UNL1        0.0046
     12 C         140.1813  142.5949  166.4556 C.ar    1  UNL1        0.0142
     13 C         140.6344  141.5387  167.4194 C.ar    1  UNL1        0.0371
     14 N         141.6549  140.6855  166.7261 N.ar    1  UNL1       -0.3306
     15 C         142.1080  139.6293  167.6899 C.3     1  UNL1        0.1061
     16 C         141.3675  139.8296  168.9789 C.3     1  UNL1        0.0307
     17 C         140.4568  141.0097  168.8117 C.3     1  UNL1        0.0458
     18 C         139.5310  141.5635  169.8539 C.3     1  UNL1        0.0476
     19 C         140.0046  142.6445  170.7797 C.2     1  UNL1        0.0507
     20 O         140.5153  142.2920  172.1453 O.co2   1  UNL1       -0.5492
     21 O         139.9675  144.0781  170.3399 O.co2   1  UNL1       -0.5492
     22 C         139.2906  146.0539  156.1597 C.ar    1  UNL1        0.0716
     23 C         138.6065  144.8947  155.4974 C.ar    1  UNL1        0.0475
     24 C         138.7228  143.5197  156.0852 C.ar    1  UNL1        0.1476
     25 C         139.5232  143.3036  157.3352 C.ar    1  UNL1        0.0420
     26 C         140.2073  144.4627  157.9975 C.ar    1  UNL1        0.0598
     27 C         140.0909  145.8378  157.4096 C.ar    1  UNL1        0.0152
     28 N         139.0579  148.8041  154.9840 N.1     1  UNL1       -0.1908
     29 C         139.1742  147.4290  155.5718 C.1     1  UNL1        0.1005
     30 O         138.0387  142.3606  155.4229 O.3     1  UNL1       -0.4044
     31 C         136.8423  141.7271  156.0688 C.3     1  UNL1        0.5753
     32 F         135.6457  141.0937  156.7147 F       1  UNL1       -0.1328
     33 F         135.9651  142.8018  155.4980 F       1  UNL1       -0.1328
     34 F         137.7193  140.6525  156.6396 F       1  UNL1       -0.1328
@<TRIPOS>UNITY_ATOM_ATTR
20 1
charge -1
@<TRIPOS>BOND
     1    28    29    3
     2    29    22    1
     3    22    23   ar
     4    23    24   ar
     5    24    30    1
     6    30    31    1
     7    31    32    1
     8    31    33    1
     9    31    34    1
    10    24    25   ar
    11    25    26   ar
    12    26     1    1
    13     1     2   ar
    14     2     3   ar
    15     3     6    1
    16     6     7   ar
    17     7     8   ar
    18     8     9   ar
    19     9    10   ar
    20    10    11   ar
    21    10    12   ar
    22    12    13   ar
    23    13    14   ar
    24    14    15    1
    25    15    16    1
    26    16    17    1
    27    17    18    1
    28    18    19    1
    29    19    20   ar
    30    19    21   ar
    31     3     4   ar
    32     4     5   ar
    33    26    27   ar
    34    27    22   ar
    35     5     1   ar
    36    11     6   ar
    37    17    13    1
    38    14     9   ar
