@<TRIPOS>MOLECULE
*****
 37 40 0 0 0
SMALL
GASTEIGER

@<TRIPOS>ATOM
      1 C         143.7019  140.6571  161.2515 C.3     1  UNL1        0.1754
      2 C         143.7132  141.1157  159.8233 C.ar    1  UNL1        0.0089
      3 C         143.8941  142.4706  159.2056 C.ar    1  UNL1       -0.0021
      4 C         143.8567  142.6259  157.7142 C.ar    1  UNL1       -0.0003
      5 C         143.6384  141.4264  156.8405 C.ar    1  UNL1        0.0001
      6 C         143.4574  140.0715  157.4581 C.ar    1  UNL1        0.0043
      7 C         143.4949  139.9162  158.9496 C.ar    1  UNL1        0.0517
      8 C         143.3486  138.7163  159.8377 C.2     1  UNL1        0.2496
      9 O         143.1153  137.3060  159.3830 O.2     1  UNL1       -0.2699
     10 N         143.4765  139.1742  161.2604 N.am    1  UNL1       -0.2604
     11 O         145.1854  141.5150  163.2042 O.2     1  UNL1       -0.2729
     12 C         143.8839  141.5286  162.4587 C.2     1  UNL1        0.2452
     13 N         142.7643  142.4137  162.9206 N.am    1  UNL1       -0.2988
     14 H         141.9100  142.4226  162.4314 H       1  UNL1        0.1498
     15 C         142.9464  143.2851  164.1279 C.3     1  UNL1        0.1164
     16 C         142.4140  142.8433  165.4588 C.ar    1  UNL1       -0.0024
     17 C         143.3444  142.2684  166.4854 C.ar    1  UNL1        0.0005
     18 C         142.8120  141.8266  167.8163 C.ar    1  UNL1        0.0369
     19 C         141.3492  141.9596  168.1207 C.ar    1  UNL1        0.1468
     20 C         140.4188  142.5345  167.0941 C.ar    1  UNL1        0.0369
     21 C         140.9512  142.9763  165.7631 C.ar    1  UNL1        0.0005
     22 O         140.8168  141.5178  169.4516 O.3     1  UNL1       -0.4045
     23 C         139.5366  140.7397  169.5266 C.3     1  UNL1        0.5753
     24 F         138.2564  139.9617  169.6016 F       1  UNL1       -0.1328
     25 F         140.1675  139.6264  168.7440 F       1  UNL1       -0.1328
     26 F         138.9058  141.8531  170.3092 F       1  UNL1       -0.1328
     27 C         143.3937  138.3023  162.4781 C.3     1  UNL1        0.1402
     28 C         142.1778  138.3523  163.3551 C.ar    1  UNL1        0.0791
     29 C         142.1879  139.1824  164.6045 C.ar    1  UNL1        0.0164
     30 C         140.9720  139.2324  165.4815 C.ar    1  UNL1        0.0067
     31 C         139.7460  138.4525  165.1091 C.ar    1  UNL1        0.0905
     32 C         139.7359  137.6225  163.8598 C.ar    1  UNL1        0.1023
     33 N         140.9518  137.5724  162.9827 N.ar    1  UNL1       -0.2465
     34 C         138.5301  138.5026  165.9862 C.3     1  UNL1        0.4200
     35 F         137.3143  138.5526  166.8632 F       1  UNL1       -0.1658
     36 F         138.7332  139.9756  166.1837 F       1  UNL1       -0.1658
     37 F         138.3270  137.0296  165.7886 F       1  UNL1       -0.1658
@<TRIPOS>BOND
     1    11    12    2
     2    12    13   am
     3    13    15    1
     4    15    16    1
     5    16    17   ar
     6    17    18   ar
     7    18    19   ar
     8    19    22    1
     9    22    23    1
    10    23    24    1
    11    23    25    1
    12    23    26    1
    13    19    20   ar
    14    20    21   ar
    15    12     1    1
    16     1     2    1
    17     2     3   ar
    18     3     4   ar
    19     4     5   ar
    20     5     6   ar
    21     6     7   ar
    22     7     8    1
    23     8     9    2
    24     8    10   am
    25    10    27    1
    26    27    28    1
    27    28    29   ar
    28    29    30   ar
    29    30    31   ar
    30    31    34    1
    31    34    35    1
    32    34    36    1
    33    34    37    1
    34    31    32   ar
    35    32    33   ar
    36    21    16   ar
    37    10     1    1
    38    33    28   ar
    39     7     2   ar
    40    13    14    1
@<TRIPOS>MOLECULE
*****
 37 40 0 0 0
SMALL
GASTEIGER

@<TRIPOS>ATOM
      1 C         140.3576  138.7770  160.9736 C.3     1  UNL1        0.1754
      2 C         141.0061  138.6889  159.6239 C.ar    1  UNL1        0.0089
      3 C         142.3767  138.2557  159.1953 C.ar    1  UNL1       -0.0021
      4 C         142.7489  138.2742  157.7423 C.ar    1  UNL1       -0.0003
      5 C         141.7505  138.7260  156.7180 C.ar    1  UNL1        0.0001
      6 C         140.3800  139.1592  157.1467 C.ar    1  UNL1        0.0043
      7 C         140.0078  139.1407  158.5996 C.ar    1  UNL1        0.0517
      8 C         138.7423  139.5080  159.3163 C.2     1  UNL1        0.2496
      9 O         137.4818  140.0116  158.6778 O.2     1  UNL1       -0.2699
     10 N         138.9585  139.2832  160.7835 N.am    1  UNL1       -0.2604
     11 O         140.7561  137.0721  162.8931 O.2     1  UNL1       -0.2729
     12 C         140.9962  138.4214  162.2835 C.2     1  UNL1        0.2452
     13 N         141.8751  139.4151  162.9838 N.am    1  UNL1       -0.2988
     14 H         142.0327  140.3007  162.5837 H       1  UNL1        0.1498
     15 C         142.5136  139.0594  164.2936 C.3     1  UNL1        0.1164
     16 C         142.3701  139.9769  165.4715 C.ar    1  UNL1       -0.0024
     17 C         143.1709  141.2435  165.5376 C.ar    1  UNL1        0.0005
     18 C         143.0274  142.1610  166.7155 C.ar    1  UNL1        0.0369
     19 C         142.0829  141.8120  167.8275 C.ar    1  UNL1        0.1468
     20 C         141.2821  140.5454  167.7614 C.ar    1  UNL1        0.0369
     21 C         141.4257  139.6278  166.5833 C.ar    1  UNL1        0.0005
     22 O         141.9394  142.7295  169.0053 O.3     1  UNL1       -0.4045
     23 C         140.6348  142.8064  169.7416 C.3     1  UNL1        0.5753
     24 F         139.3302  142.8833  170.4779 F       1  UNL1       -0.1328
     25 F         141.1750  141.8851  170.7949 F       1  UNL1       -0.1328
     26 F         140.0947  143.7277  168.6884 F       1  UNL1       -0.1328
     27 C         137.9523  139.5227  161.8699 C.3     1  UNL1        0.1402
     28 C         138.0768  140.7269  162.7554 C.ar    1  UNL1        0.0791
     29 C         138.7362  140.6061  164.0974 C.ar    1  UNL1        0.0164
     30 C         138.8608  141.8104  164.9829 C.ar    1  UNL1        0.0067
     31 C         138.3260  143.1354  164.5266 C.ar    1  UNL1        0.0905
     32 C         137.6666  143.2562  163.1848 C.ar    1  UNL1        0.1023
     33 N         137.5420  142.0520  162.2991 N.ar    1  UNL1       -0.2465
     34 C         138.4506  144.3397  165.4123 C.3     1  UNL1        0.4200
     35 F         138.5753  145.5439  166.2979 F       1  UNL1       -0.1658
     36 F         137.0019  144.6560  165.1860 F       1  UNL1       -0.1658
     37 F         139.8993  144.0234  165.6385 F       1  UNL1       -0.1658
@<TRIPOS>BOND
     1    11    12    2
     2    12    13   am
     3    13    15    1
     4    15    16    1
     5    16    17   ar
     6    17    18   ar
     7    18    19   ar
     8    19    22    1
     9    22    23    1
    10    23    24    1
    11    23    25    1
    12    23    26    1
    13    19    20   ar
    14    20    21   ar
    15    12     1    1
    16     1     2    1
    17     2     3   ar
    18     3     4   ar
    19     4     5   ar
    20     5     6   ar
    21     6     7   ar
    22     7     8    1
    23     8     9    2
    24     8    10   am
    25    10    27    1
    26    27    28    1
    27    28    29   ar
    28    29    30   ar
    29    30    31   ar
    30    31    34    1
    31    34    35    1
    32    34    36    1
    33    34    37    1
    34    31    32   ar
    35    32    33   ar
    36    21    16   ar
    37    10     1    1
    38    33    28   ar
    39     7     2   ar
    40    13    14    1
@<TRIPOS>MOLECULE
*****
 37 40 0 0 0
SMALL
GASTEIGER

@<TRIPOS>ATOM
      1 C         139.9532  138.9971  160.2530 C.3     1  UNL1        0.1754
      2 C         140.6847  138.8918  158.9476 C.ar    1  UNL1        0.0089
      3 C         142.0384  138.3496  158.5966 C.ar    1  UNL1       -0.0021
      4 C         142.5120  138.3786  157.1736 C.ar    1  UNL1       -0.0003
      5 C         141.6318  138.9497  156.1017 C.ar    1  UNL1        0.0001
      6 C         140.2780  139.4919  156.4527 C.ar    1  UNL1        0.0043
      7 C         139.8044  139.4629  157.8757 C.ar    1  UNL1        0.0517
      8 C         138.5290  139.9212  158.5186 C.2     1  UNL1        0.2496
      9 O         137.3659  140.5560  157.8156 O.2     1  UNL1       -0.2699
     10 N         138.6210  139.6334  159.9878 N.am    1  UNL1       -0.2604
     11 O         141.8397  138.9408  162.0385 O.2     1  UNL1       -0.2729
     12 C         140.4644  138.5455  161.5889 C.2     1  UNL1        0.2452
     13 N         139.6001  137.6985  162.4754 N.am    1  UNL1       -0.2988
     14 H         138.6974  137.4390  162.1803 H       1  UNL1        0.1498
     15 C         140.1113  137.2468  163.8113 C.3     1  UNL1        0.1164
     16 C         139.9554  138.1320  165.0122 C.ar    1  UNL1       -0.0024
     17 C         138.6727  138.1225  165.7896 C.ar    1  UNL1        0.0005
     18 C         138.5169  139.0078  166.9905 C.ar    1  UNL1        0.0369
     19 C         139.6439  139.9025  167.4140 C.ar    1  UNL1        0.1468
     20 C         140.9267  139.9120  166.6366 C.ar    1  UNL1        0.0369
     21 C         141.0825  139.0267  165.4356 C.ar    1  UNL1        0.0005
     22 O         139.4881  140.7877  168.6148 O.3     1  UNL1       -0.4045
     23 C         139.5982  140.2075  169.9937 C.3     1  UNL1        0.5753
     24 F         139.7084  139.6274  171.3725 F       1  UNL1       -0.1328
     25 F         138.1048  140.2451  170.1288 F       1  UNL1       -0.1328
     26 F         141.0917  140.1700  169.8586 F       1  UNL1       -0.1328
     27 C         137.5660  139.9297  161.0121 C.3     1  UNL1        0.1402
     28 C         137.7732  141.0356  162.0040 C.ar    1  UNL1        0.0791
     29 C         137.9493  140.7152  163.4588 C.ar    1  UNL1        0.0164
     30 C         138.1565  141.8211  164.4507 C.ar    1  UNL1        0.0067
     31 C         138.1877  143.2476  163.9878 C.ar    1  UNL1        0.0905
     32 C         138.0117  143.5681  162.5331 C.ar    1  UNL1        0.1023
     33 N         137.8044  142.4621  161.5411 N.ar    1  UNL1       -0.2465
     34 C         138.3950  144.3536  164.9798 C.3     1  UNL1        0.4200
     35 F         138.6022  145.4595  165.9717 F       1  UNL1       -0.1658
     36 F         139.8792  144.2421  164.7941 F       1  UNL1       -0.1658
     37 F         136.9107  144.4650  165.1655 F       1  UNL1       -0.1658
@<TRIPOS>BOND
     1    11    12    2
     2    12    13   am
     3    13    15    1
     4    15    16    1
     5    16    17   ar
     6    17    18   ar
     7    18    19   ar
     8    19    22    1
     9    22    23    1
    10    23    24    1
    11    23    25    1
    12    23    26    1
    13    19    20   ar
    14    20    21   ar
    15    12     1    1
    16     1     2    1
    17     2     3   ar
    18     3     4   ar
    19     4     5   ar
    20     5     6   ar
    21     6     7   ar
    22     7     8    1
    23     8     9    2
    24     8    10   am
    25    10    27    1
    26    27    28    1
    27    28    29   ar
    28    29    30   ar
    29    30    31   ar
    30    31    34    1
    31    34    35    1
    32    34    36    1
    33    34    37    1
    34    31    32   ar
    35    32    33   ar
    36    21    16   ar
    37    10     1    1
    38    33    28   ar
    39     7     2   ar
    40    13    14    1
@<TRIPOS>MOLECULE
*****
 37 40 0 0 0
SMALL
GASTEIGER

@<TRIPOS>ATOM
      1 C         143.3236  139.8485  161.2955 C.3     1  UNL1        0.1754
      2 C         143.1595  139.2236  159.9418 C.ar    1  UNL1        0.0089
      3 C         142.8355  137.8224  159.5158 C.ar    1  UNL1       -0.0021
      4 C         142.7350  137.4862  158.0574 C.ar    1  UNL1       -0.0003
      5 C         142.9585  138.5513  157.0251 C.ar    1  UNL1        0.0001
      6 C         143.2825  139.9525  157.4511 C.ar    1  UNL1        0.0043
      7 C         143.3830  140.2886  158.9095 C.ar    1  UNL1        0.0517
      8 C         143.6852  141.5718  159.6253 C.2     1  UNL1        0.2496
      9 O         143.9735  142.8947  158.9796 O.2     1  UNL1       -0.2699
     10 N         143.6485  141.2997  161.0999 N.am    1  UNL1       -0.2604
     11 O         144.3971  138.9116  163.4681 O.2     1  UNL1       -0.2729
     12 C         143.1868  139.1455  162.6135 C.2     1  UNL1        0.2452
     13 N         141.8394  138.6763  163.0770 N.am    1  UNL1       -0.2988
     14 H         141.0450  138.8298  162.5162 H       1  UNL1        0.1498
     15 C         141.7026  137.9733  164.3950 C.3     1  UNL1        0.1164
     16 C         141.5187  138.7685  165.6535 C.ar    1  UNL1       -0.0024
     17 C         140.1754  139.3475  165.9854 C.ar    1  UNL1        0.0005
     18 C         139.9916  140.1426  167.2439 C.ar    1  UNL1        0.0369
     19 C         141.1511  140.3588  168.1707 C.ar    1  UNL1        0.1468
     20 C         142.4944  139.7798  167.8388 C.ar    1  UNL1        0.0369
     21 C         142.6783  138.9846  166.5802 C.ar    1  UNL1        0.0005
     22 O         140.9672  141.1540  169.4292 O.3     1  UNL1       -0.4045
     23 C         140.5599  142.5956  169.3528 C.3     1  UNL1        0.5753
     24 F         140.1525  144.0372  169.2764 F       1  UNL1       -0.1328
     25 F         139.3685  142.3047  170.2165 F       1  UNL1       -0.1328
     26 F         141.7512  142.8864  168.4890 F       1  UNL1       -0.1328
     27 C         143.8936  142.3028  162.1879 C.3     1  UNL1        0.1402
     28 C         142.7377  142.8818  162.9486 C.ar    1  UNL1        0.0791
     29 C         142.3512  142.3059  164.2787 C.ar    1  UNL1        0.0164
     30 C         141.1953  142.8849  165.0393 C.ar    1  UNL1        0.0067
     31 C         140.4258  144.0397  164.4699 C.ar    1  UNL1        0.0905
     32 C         140.8122  144.6156  163.1399 C.ar    1  UNL1        0.1023
     33 N         141.9682  144.0367  162.3792 N.ar    1  UNL1       -0.2465
     34 C         139.2698  144.6187  165.2307 C.3     1  UNL1        0.4200
     35 F         138.1139  145.1976  165.9914 F       1  UNL1       -0.1658
     36 F         138.8615  145.3989  164.0164 F       1  UNL1       -0.1658
     37 F         139.6782  143.8384  166.4449 F       1  UNL1       -0.1658
@<TRIPOS>BOND
     1    11    12    2
     2    12    13   am
     3    13    15    1
     4    15    16    1
     5    16    17   ar
     6    17    18   ar
     7    18    19   ar
     8    19    22    1
     9    22    23    1
    10    23    24    1
    11    23    25    1
    12    23    26    1
    13    19    20   ar
    14    20    21   ar
    15    12     1    1
    16     1     2    1
    17     2     3   ar
    18     3     4   ar
    19     4     5   ar
    20     5     6   ar
    21     6     7   ar
    22     7     8    1
    23     8     9    2
    24     8    10   am
    25    10    27    1
    26    27    28    1
    27    28    29   ar
    28    29    30   ar
    29    30    31   ar
    30    31    34    1
    31    34    35    1
    32    34    36    1
    33    34    37    1
    34    31    32   ar
    35    32    33   ar
    36    21    16   ar
    37    10     1    1
    38    33    28   ar
    39     7     2   ar
    40    13    14    1
@<TRIPOS>MOLECULE
*****
 37 40 0 0 0
SMALL
GASTEIGER

@<TRIPOS>ATOM
      1 C         139.2581  142.6179  160.7344 C.3     1  UNL1        0.1754
      2 C         138.9229  142.7610  159.2794 C.ar    1  UNL1        0.0089
      3 C         137.9404  142.0453  158.4006 C.ar    1  UNL1       -0.0021
      4 C         137.8247  142.4123  156.9508 C.ar    1  UNL1       -0.0003
      5 C         138.6916  143.4951  156.3798 C.ar    1  UNL1        0.0001
      6 C         139.6742  144.2108  157.2586 C.ar    1  UNL1        0.0043
      7 C         139.7898  143.8438  158.7084 C.ar    1  UNL1        0.0517
      8 C         140.6607  144.3698  159.8105 C.2     1  UNL1        0.2496
      9 O         141.6812  145.4618  159.6829 O.2     1  UNL1       -0.2699
     10 N         140.3321  143.6122  161.0627 N.am    1  UNL1       -0.2604
     11 O         137.2676  141.9299  162.2558 O.2     1  UNL1       -0.2729
     12 C         138.6295  141.6503  161.6929 C.2     1  UNL1        0.2452
     13 N         139.3629  140.4030  162.0885 N.am    1  UNL1       -0.2988
     14 H         140.2568  140.2194  161.7191 H       1  UNL1        0.1498
     15 C         138.7344  139.4354  163.0470 C.3     1  UNL1        0.1164
     16 C         139.0409  139.5255  164.5126 C.ar    1  UNL1       -0.0024
     17 C         140.3817  140.0188  164.9695 C.ar    1  UNL1        0.0005
     18 C         140.6881  140.1088  166.4351 C.ar    1  UNL1        0.0369
     19 C         139.6537  139.7057  167.4438 C.ar    1  UNL1        0.1468
     20 C         138.3128  139.2125  166.9869 C.ar    1  UNL1        0.0369
     21 C         138.0064  139.1224  165.5212 C.ar    1  UNL1        0.0005
     22 O         139.9602  139.7958  168.9094 O.3     1  UNL1       -0.4045
     23 C         139.4941  140.9812  169.7016 C.3     1  UNL1        0.5753
     24 F         139.0279  142.1665  170.4939 F       1  UNL1       -0.1328
     25 F         138.2687  140.2220  170.1166 F       1  UNL1       -0.1328
     26 F         140.7194  141.7404  169.2867 F       1  UNL1       -0.1328
     27 C         140.9662  143.8135  162.4071 C.3     1  UNL1        0.1402
     28 C         141.9375  142.8010  162.9375 C.ar    1  UNL1        0.0791
     29 C         142.5819  143.0091  164.2760 C.ar    1  UNL1        0.0164
     30 C         143.5532  141.9966  164.8063 C.ar    1  UNL1        0.0067
     31 C         143.8802  140.7760  163.9982 C.ar    1  UNL1        0.0905
     32 C         143.2359  140.5678  162.6597 C.ar    1  UNL1        0.1023
     33 N         142.2645  141.5804  162.1293 N.ar    1  UNL1       -0.2465
     34 C         144.8516  139.7634  164.5285 C.3     1  UNL1        0.4200
     35 F         145.8230  138.7510  165.0589 F       1  UNL1       -0.1658
     36 F         143.7181  138.8207  164.8050 F       1  UNL1       -0.1658
     37 F         145.9851  140.7061  164.2520 F       1  UNL1       -0.1658
@<TRIPOS>BOND
     1    11    12    2
     2    12    13   am
     3    13    15    1
     4    15    16    1
     5    16    17   ar
     6    17    18   ar
     7    18    19   ar
     8    19    22    1
     9    22    23    1
    10    23    24    1
    11    23    25    1
    12    23    26    1
    13    19    20   ar
    14    20    21   ar
    15    12     1    1
    16     1     2    1
    17     2     3   ar
    18     3     4   ar
    19     4     5   ar
    20     5     6   ar
    21     6     7   ar
    22     7     8    1
    23     8     9    2
    24     8    10   am
    25    10    27    1
    26    27    28    1
    27    28    29   ar
    28    29    30   ar
    29    30    31   ar
    30    31    34    1
    31    34    35    1
    32    34    36    1
    33    34    37    1
    34    31    32   ar
    35    32    33   ar
    36    21    16   ar
    37    10     1    1
    38    33    28   ar
    39     7     2   ar
    40    13    14    1
@<TRIPOS>MOLECULE
*****
 37 40 0 0 0
SMALL
GASTEIGER

@<TRIPOS>ATOM
      1 C         139.8062  139.1235  160.4360 C.3     1  UNL1        0.1754
      2 C         139.5768  139.5230  159.0085 C.ar    1  UNL1        0.0089
      3 C         138.4436  140.2402  158.3367 C.ar    1  UNL1       -0.0021
      4 C         138.4935  140.5051  156.8611 C.ar    1  UNL1       -0.0003
      5 C         139.6765  140.0529  156.0574 C.ar    1  UNL1        0.0001
      6 C         140.8097  139.3357  156.7293 C.ar    1  UNL1        0.0043
      7 C         140.7599  139.0708  158.2049 C.ar    1  UNL1        0.0517
      8 C         141.7203  138.3917  159.1357 C.2     1  UNL1        0.2496
      9 O         143.0388  137.7864  158.7544 O.2     1  UNL1       -0.2699
     10 N         141.1309  138.4243  160.5146 N.am    1  UNL1       -0.2604
     11 O         137.8243  138.3669  161.9359 O.2     1  UNL1       -0.2729
     12 C         138.8743  139.3783  161.5835 C.2     1  UNL1        0.2452
     13 N         138.9925  140.6448  162.3787 N.am    1  UNL1       -0.2988
     14 H         139.6817  141.3087  162.1474 H       1  UNL1        0.1498
     15 C         138.0607  140.8997  163.5261 C.3     1  UNL1        0.1164
     16 C         138.4999  140.6025  164.9292 C.ar    1  UNL1       -0.0024
     17 C         138.0765  139.3258  165.5932 C.ar    1  UNL1        0.0005
     18 C         138.5158  139.0287  166.9963 C.ar    1  UNL1        0.0369
     19 C         139.3786  140.0081  167.7355 C.ar    1  UNL1        0.1468
     20 C         139.8020  141.2848  167.0715 C.ar    1  UNL1        0.0369
     21 C         139.3627  141.5819  165.6683 C.ar    1  UNL1        0.0005
     22 O         139.8179  139.7109  169.1385 O.3     1  UNL1       -0.4045
     23 C         140.0479  140.8336  170.1062 C.3     1  UNL1        0.5753
     24 F         140.2779  141.9564  171.0739 F       1  UNL1       -0.1328
     25 F         138.5661  141.0323  170.2279 F       1  UNL1       -0.1328
     26 F         141.5297  140.6350  169.9845 F       1  UNL1       -0.1328
     27 C         141.7564  137.8572  161.7545 C.3     1  UNL1        0.1402
     28 C         142.0977  138.7601  162.9026 C.ar    1  UNL1        0.0791
     29 C         142.1220  138.2184  164.3012 C.ar    1  UNL1        0.0164
     30 C         142.4633  139.1213  165.4494 C.ar    1  UNL1        0.0067
     31 C         142.7801  140.5659  165.1991 C.ar    1  UNL1        0.0905
     32 C         142.7558  141.1076  163.8006 C.ar    1  UNL1        0.1023
     33 N         142.4145  140.2047  162.6523 N.ar    1  UNL1       -0.2465
     34 C         143.1214  141.4688  166.3473 C.3     1  UNL1        0.4200
     35 F         143.4626  142.3716  167.4956 F       1  UNL1       -0.1658
     36 F         143.2406  142.6268  165.4014 F       1  UNL1       -0.1658
     37 F         143.0021  140.3108  167.2932 F       1  UNL1       -0.1658
@<TRIPOS>BOND
     1    11    12    2
     2    12    13   am
     3    13    15    1
     4    15    16    1
     5    16    17   ar
     6    17    18   ar
     7    18    19   ar
     8    19    22    1
     9    22    23    1
    10    23    24    1
    11    23    25    1
    12    23    26    1
    13    19    20   ar
    14    20    21   ar
    15    12     1    1
    16     1     2    1
    17     2     3   ar
    18     3     4   ar
    19     4     5   ar
    20     5     6   ar
    21     6     7   ar
    22     7     8    1
    23     8     9    2
    24     8    10   am
    25    10    27    1
    26    27    28    1
    27    28    29   ar
    28    29    30   ar
    29    30    31   ar
    30    31    34    1
    31    34    35    1
    32    34    36    1
    33    34    37    1
    34    31    32   ar
    35    32    33   ar
    36    21    16   ar
    37    10     1    1
    38    33    28   ar
    39     7     2   ar
    40    13    14    1
@<TRIPOS>MOLECULE
*****
 37 40 0 0 0
SMALL
GASTEIGER

@<TRIPOS>ATOM
      1 C         139.4652  142.7235  160.8220 C.3     1  UNL1        0.1754
      2 C         139.4923  143.1561  159.3860 C.ar    1  UNL1        0.0089
      3 C         140.1455  144.3193  158.7003 C.ar    1  UNL1       -0.0021
      4 C         139.9943  144.4979  157.2187 C.ar    1  UNL1       -0.0003
      5 C         139.1900  143.5133  156.4228 C.ar    1  UNL1        0.0001
      6 C         138.5368  142.3501  157.1084 C.ar    1  UNL1        0.0043
      7 C         138.6880  142.1715  158.5900 C.ar    1  UNL1        0.0517
      8 C         138.1637  141.1304  159.5341 C.2     1  UNL1        0.2496
      9 O         137.3092  139.9545  159.1638 O.2     1  UNL1       -0.2699
     10 N         138.6441  141.4715  160.9136 N.am    1  UNL1       -0.2604
     11 O         139.5044  144.6268  162.5900 O.2     1  UNL1       -0.2729
     12 C         140.1407  143.4205  161.9656 C.2     1  UNL1        0.2452
     13 N         141.4526  142.9111  162.4850 N.am    1  UNL1       -0.2988
     14 H         141.8702  142.1194  162.0752 H       1  UNL1        0.1498
     15 C         142.1280  143.6082  163.6286 C.3     1  UNL1        0.1164
     16 C         141.8678  143.1630  165.0372 C.ar    1  UNL1       -0.0024
     17 C         140.5007  143.3220  165.6336 C.ar    1  UNL1        0.0005
     18 C         140.2405  142.8769  167.0422 C.ar    1  UNL1        0.0369
     19 C         141.3475  142.2727  167.8545 C.ar    1  UNL1        0.1468
     20 C         142.7146  142.1137  167.2581 C.ar    1  UNL1        0.0369
     21 C         142.9748  142.5589  165.8494 C.ar    1  UNL1        0.0005
     22 O         141.0872  141.8276  169.2630 O.3     1  UNL1       -0.4045
     23 C         140.1787  142.6292  170.1473 C.3     1  UNL1        0.5753
     24 F         139.2702  143.4309  171.0315 F       1  UNL1       -0.1328
     25 F         141.1455  143.7752  170.1016 F       1  UNL1       -0.1328
     26 F         139.2120  141.4832  170.1930 F       1  UNL1       -0.1328
     27 C         138.3543  140.6968  162.1649 C.3     1  UNL1        0.1402
     28 C         139.4834  140.2064  163.0219 C.ar    1  UNL1        0.0791
     29 C         139.2959  140.0706  164.5040 C.ar    1  UNL1        0.0164
     30 C         140.4251  139.5803  165.3610 C.ar    1  UNL1        0.0067
     31 C         141.7418  139.2256  164.7360 C.ar    1  UNL1        0.0905
     32 C         141.9293  139.3614  163.2540 C.ar    1  UNL1        0.1023
     33 N         140.8001  139.8518  162.3969 N.ar    1  UNL1       -0.2465
     34 C         142.8709  138.7352  165.5931 C.3     1  UNL1        0.4200
     35 F         144.0000  138.2449  166.4502 F       1  UNL1       -0.1658
     36 F         143.7253  138.5677  164.3717 F       1  UNL1       -0.1658
     37 F         142.0165  138.9028  166.8145 F       1  UNL1       -0.1658
@<TRIPOS>BOND
     1    11    12    2
     2    12    13   am
     3    13    15    1
     4    15    16    1
     5    16    17   ar
     6    17    18   ar
     7    18    19   ar
     8    19    22    1
     9    22    23    1
    10    23    24    1
    11    23    25    1
    12    23    26    1
    13    19    20   ar
    14    20    21   ar
    15    12     1    1
    16     1     2    1
    17     2     3   ar
    18     3     4   ar
    19     4     5   ar
    20     5     6   ar
    21     6     7   ar
    22     7     8    1
    23     8     9    2
    24     8    10   am
    25    10    27    1
    26    27    28    1
    27    28    29   ar
    28    29    30   ar
    29    30    31   ar
    30    31    34    1
    31    34    35    1
    32    34    36    1
    33    34    37    1
    34    31    32   ar
    35    32    33   ar
    36    21    16   ar
    37    10     1    1
    38    33    28   ar
    39     7     2   ar
    40    13    14    1
@<TRIPOS>MOLECULE
*****
 37 40 0 0 0
SMALL
GASTEIGER

@<TRIPOS>ATOM
      1 C         141.8558  138.0915  158.4496 C.3     1  UNL1        0.1754
      2 C         141.9986  137.0190  157.4107 C.ar    1  UNL1        0.0089
      3 C         143.0526  135.9765  157.1827 C.ar    1  UNL1       -0.0021
      4 C         142.9240  135.0184  156.0358 C.ar    1  UNL1       -0.0003
      5 C         141.7414  135.1028  155.1169 C.ar    1  UNL1        0.0001
      6 C         140.6874  136.1453  155.3450 C.ar    1  UNL1        0.0043
      7 C         140.8159  137.1035  156.4919 C.ar    1  UNL1        0.0517
      8 C         139.9423  138.2282  156.9629 C.2     1  UNL1        0.2496
      9 O         138.6525  138.6654  156.3344 O.2     1  UNL1       -0.2699
     10 N         140.5850  138.8388  158.1729 N.am    1  UNL1       -0.2604
     11 O         143.9935  139.2684  159.3415 O.2     1  UNL1       -0.2729
     12 C         142.8155  138.3682  159.5688 C.2     1  UNL1        0.2452
     13 N         142.5970  137.7445  160.9155 N.am    1  UNL1       -0.2988
     14 H         141.8239  137.1536  161.0648 H       1  UNL1        0.1498
     15 C         143.5567  138.0211  162.0347 C.3     1  UNL1        0.1164
     16 C         143.0726  138.6809  163.2917 C.ar    1  UNL1       -0.0024
     17 C         143.4744  140.0928  163.6004 C.ar    1  UNL1        0.0005
     18 C         142.9902  140.7526  164.8575 C.ar    1  UNL1        0.0369
     19 C         142.1043  140.0005  165.8060 C.ar    1  UNL1        0.1468
     20 C         141.7026  138.5887  165.4974 C.ar    1  UNL1        0.0369
     21 C         142.1867  137.9289  164.2402 C.ar    1  UNL1        0.0005
     22 O         141.6202  140.6604  167.0630 O.3     1  UNL1       -0.4045
     23 C         141.5867  139.8899  168.3496 C.3     1  UNL1        0.5753
     24 F         141.5531  139.1194  169.6361 F       1  UNL1       -0.1328
     25 F         140.0882  139.9574  168.3509 F       1  UNL1       -0.1328
     26 F         143.0851  139.8224  168.3482 F       1  UNL1       -0.1328
     27 C         140.0507  139.9940  158.9668 C.3     1  UNL1        0.1402
     28 C         139.6138  139.7897  160.3871 C.ar    1  UNL1        0.0791
     29 C         140.1829  140.6481  161.4777 C.ar    1  UNL1        0.0164
     30 C         139.7461  140.4439  162.8980 C.ar    1  UNL1        0.0067
     31 C         138.7401  139.3812  163.2279 C.ar    1  UNL1        0.0905
     32 C         138.1710  138.5228  162.1374 C.ar    1  UNL1        0.1023
     33 N         138.6079  138.7270  160.7169 N.ar    1  UNL1       -0.2465
     34 C         138.3033  139.1770  164.6483 C.3     1  UNL1        0.4200
     35 F         137.8665  138.9728  166.0686 F       1  UNL1       -0.1658
     36 F         138.6302  137.7172  164.5390 F       1  UNL1       -0.1658
     37 F         137.9764  140.6368  164.7576 F       1  UNL1       -0.1658
@<TRIPOS>BOND
     1    11    12    2
     2    12    13   am
     3    13    15    1
     4    15    16    1
     5    16    17   ar
     6    17    18   ar
     7    18    19   ar
     8    19    22    1
     9    22    23    1
    10    23    24    1
    11    23    25    1
    12    23    26    1
    13    19    20   ar
    14    20    21   ar
    15    12     1    1
    16     1     2    1
    17     2     3   ar
    18     3     4   ar
    19     4     5   ar
    20     5     6   ar
    21     6     7   ar
    22     7     8    1
    23     8     9    2
    24     8    10   am
    25    10    27    1
    26    27    28    1
    27    28    29   ar
    28    29    30   ar
    29    30    31   ar
    30    31    34    1
    31    34    35    1
    32    34    36    1
    33    34    37    1
    34    31    32   ar
    35    32    33   ar
    36    21    16   ar
    37    10     1    1
    38    33    28   ar
    39     7     2   ar
    40    13    14    1
@<TRIPOS>MOLECULE
*****
 37 40 0 0 0
SMALL
GASTEIGER

@<TRIPOS>ATOM
      1 C         142.4726  142.7654  160.4474 C.3     1  UNL1        0.1754
      2 C         141.6375  143.6432  159.5631 C.ar    1  UNL1        0.0089
      3 C         141.2292  145.0822  159.6746 C.ar    1  UNL1       -0.0021
      4 C         140.3703  145.7025  158.6128 C.ar    1  UNL1       -0.0003
      5 C         139.9196  144.8837  157.4396 C.ar    1  UNL1        0.0001
      6 C         140.3279  143.4447  157.3281 C.ar    1  UNL1        0.0043
      7 C         141.1868  142.8245  158.3898 C.ar    1  UNL1        0.0517
      8 C         141.7434  141.4407  158.5491 C.2     1  UNL1        0.2496
      9 O         141.5409  140.2946  157.6028 O.2     1  UNL1       -0.2699
     10 N         142.5381  141.4042  159.8208 N.am    1  UNL1       -0.2604
     11 O         144.5002  143.7807  161.7156 O.2     1  UNL1       -0.2729
     12 C         143.1274  143.1767  161.7328 C.2     1  UNL1        0.2452
     13 N         142.4091  142.9839  163.0356 N.am    1  UNL1       -0.2988
     14 H         141.5081  142.5875  163.0470 H       1  UNL1        0.1498
     15 C         143.0639  143.3952  164.3210 C.3     1  UNL1        0.1164
     16 C         142.5236  142.9001  165.6297 C.ar    1  UNL1       -0.0024
     17 C         141.0445  142.7334  165.8158 C.ar    1  UNL1        0.0005
     18 C         140.5043  142.2383  167.1246 C.ar    1  UNL1        0.0369
     19 C         141.4431  141.9098  168.2474 C.ar    1  UNL1        0.1468
     20 C         142.9222  142.0764  168.0614 C.ar    1  UNL1        0.0369
     21 C         143.4624  142.5716  166.7525 C.ar    1  UNL1        0.0005
     22 O         140.9028  141.4146  169.5562 O.3     1  UNL1       -0.4045
     23 C         139.5609  140.7466  169.6091 C.3     1  UNL1        0.5753
     24 F         138.2189  140.0785  169.6620 F       1  UNL1       -0.1328
     25 F         139.0146  141.9056  170.3889 F       1  UNL1       -0.1328
     26 F         140.1072  139.5875  168.8292 F       1  UNL1       -0.1328
     27 C         143.2698  140.2152  160.3694 C.3     1  UNL1        0.1402
     28 C         143.1920  139.8965  161.8331 C.ar    1  UNL1        0.0791
     29 C         144.4501  139.7495  162.6366 C.ar    1  UNL1        0.0164
     30 C         144.3724  139.4309  164.1003 C.ar    1  UNL1        0.0067
     31 C         143.0365  139.2592  164.7605 C.ar    1  UNL1        0.0905
     32 C         141.7784  139.4062  163.9571 C.ar    1  UNL1        0.1023
     33 N         141.8561  139.7249  162.4934 N.ar    1  UNL1       -0.2465
     34 C         142.9587  138.9405  166.2243 C.3     1  UNL1        0.4200
     35 F         142.8810  138.6219  167.6879 F       1  UNL1       -0.1658
     36 F         141.4860  139.2246  166.2079 F       1  UNL1       -0.1658
     37 F         144.4315  138.6565  166.2406 F       1  UNL1       -0.1658
@<TRIPOS>BOND
     1    11    12    2
     2    12    13   am
     3    13    15    1
     4    15    16    1
     5    16    17   ar
     6    17    18   ar
     7    18    19   ar
     8    19    22    1
     9    22    23    1
    10    23    24    1
    11    23    25    1
    12    23    26    1
    13    19    20   ar
    14    20    21   ar
    15    12     1    1
    16     1     2    1
    17     2     3   ar
    18     3     4   ar
    19     4     5   ar
    20     5     6   ar
    21     6     7   ar
    22     7     8    1
    23     8     9    2
    24     8    10   am
    25    10    27    1
    26    27    28    1
    27    28    29   ar
    28    29    30   ar
    29    30    31   ar
    30    31    34    1
    31    34    35    1
    32    34    36    1
    33    34    37    1
    34    31    32   ar
    35    32    33   ar
    36    21    16   ar
    37    10     1    1
    38    33    28   ar
    39     7     2   ar
    40    13    14    1
