@<TRIPOS>MOLECULE
*****
 34 39 0 0 0
SMALL
GASTEIGER

@<TRIPOS>ATOM
      1 C         138.4333  142.3320  161.0211 C.ar    1  UNL1        0.0625
      2 C         138.4001  142.4242  159.5243 C.ar    1  UNL1        0.0158
      3 C         138.4258  141.1744  158.6952 C.ar    1  UNL1        0.0014
      4 C         138.4847  139.8325  159.3628 C.ar    1  UNL1        0.0016
      5 C         138.5179  139.7403  160.8596 C.ar    1  UNL1        0.0189
      6 C         138.5768  138.3984  161.5272 C.ar    1  UNL1        0.0032
      7 C         138.6100  138.3061  163.0240 C.ar    1  UNL1        0.0223
      8 C         138.5843  139.5559  163.8531 C.ar    1  UNL1        0.1188
      9 N         138.5254  140.8978  163.1856 N.ar    1  UNL1       -0.2410
     10 C         138.4922  140.9901  161.6887 C.ar    1  UNL1        0.0944
     11 C         138.6175  139.4637  165.3500 C.ar    1  UNL1        0.2041
     12 N         137.6223  138.7442  166.2113 N.ar    1  UNL1       -0.1253
     13 N         138.0415  138.9107  167.6419 N.ar    1  UNL1       -0.1237
     14 C         139.2957  139.7330  167.6647 C.ar    1  UNL1        0.2218
     15 C         140.1596  140.2148  168.7924 C.ar    1  UNL1        0.1907
     16 C         141.3796  141.0384  168.5035 C.ar    1  UNL1        0.1067
     17 C         141.7356  141.3802  167.0869 C.ar    1  UNL1        0.1382
     18 N         140.8717  140.8984  165.9594 N.ar    1  UNL1       -0.1592
     19 N         139.6517  140.0748  166.2483 N.ar    1  UNL1       -0.1869
     20 N         142.2435  141.5202  169.6311 N.pl3   1  UNL1       -0.2987
     21 C         143.4635  142.3437  169.3422 C.3     1  UNL1        0.1124
     22 C         141.8875  141.1783  171.0475 C.3     1  UNL1        0.1387
     23 C         140.6676  140.3548  171.3364 C.3     1  UNL1        0.2269
     24 O         139.8036  139.8730  170.2088 O.3     1  UNL1       -0.4692
     25 N         138.4076  143.5817  161.8503 N.pl3   1  UNL1       -0.3315
     26 H         137.6002  143.8161  162.3626 H       1  UNL1        0.1469
     27 C         139.6122  144.4743  161.8991 C.3     1  UNL1        0.0871
     28 C         145.0972  142.0879  162.3668 C.3     1  UNL1        0.0896
     29 N         143.7260  142.6845  162.2498 N.3     1  UNL1       -0.2715
     30 C         142.8190  142.7195  163.4440 C.3     1  UNL1        0.0722
     31 C         141.4477  143.3161  163.3271 C.3     1  UNL1        0.0191
     32 C         140.9835  143.8777  162.0160 C.3     1  UNL1        0.0223
     33 C         141.8904  143.8427  160.8218 C.3     1  UNL1        0.0191
     34 C         143.2617  143.2461  160.9387 C.3     1  UNL1        0.0722
@<TRIPOS>BOND
     1    28    29    1
     2    29    30    1
     3    30    31    1
     4    31    32    1
     5    32    27    1
     6    27    25    1
     7    25     1    1
     8     1     2   ar
     9     2     3   ar
    10     3     4   ar
    11     4     5   ar
    12     5     6   ar
    13     6     7   ar
    14     7     8   ar
    15     8    11    1
    16    11    12   ar
    17    12    13   ar
    18    13    14   ar
    19    14    15   ar
    20    15    16   ar
    21    16    17   ar
    22    17    18   ar
    23    18    19   ar
    24    16    20    1
    25    20    21    1
    26    20    22    1
    27    22    23    1
    28    23    24    1
    29     8     9   ar
    30     9    10   ar
    31    32    33    1
    32    33    34    1
    33    34    29    1
    34    10     1   ar
    35    10     5   ar
    36    19    11   ar
    37    19    14   ar
    38    24    15    1
    39    25    26    1
@<TRIPOS>MOLECULE
*****
 34 39 0 0 0
SMALL
GASTEIGER

@<TRIPOS>ATOM
      1 C         141.1599  138.2766  160.7715 C.ar    1  UNL1        0.0625
      2 C         141.2046  138.3513  159.2741 C.ar    1  UNL1        0.0158
      3 C         140.1315  139.0868  158.5274 C.ar    1  UNL1        0.0014
      4 C         139.0137  139.7476  159.2782 C.ar    1  UNL1        0.0016
      5 C         138.9689  139.6729  160.7757 C.ar    1  UNL1        0.0189
      6 C         137.8511  140.3337  161.5265 C.ar    1  UNL1        0.0032
      7 C         137.8063  140.2590  163.0239 C.ar    1  UNL1        0.0223
      8 C         138.8794  139.5235  163.7706 C.ar    1  UNL1        0.1188
      9 N         139.9972  138.8627  163.0199 N.ar    1  UNL1       -0.2410
     10 C         140.0420  138.9374  161.5223 C.ar    1  UNL1        0.0944
     11 C         138.8346  139.4488  165.2681 C.ar    1  UNL1        0.2041
     12 N         137.7875  138.7518  166.0853 N.ar    1  UNL1       -0.1253
     13 N         138.1349  138.9302  167.5335 N.ar    1  UNL1       -0.1237
     14 C         139.3967  139.7376  167.6114 C.ar    1  UNL1        0.2218
     15 C         140.2077  140.2223  168.7765 C.ar    1  UNL1        0.1907
     16 C         141.4512  141.0276  168.5414 C.ar    1  UNL1        0.1067
     17 C         141.8837  141.3481  167.1413 C.ar    1  UNL1        0.1382
     18 N         141.0726  140.8633  165.9763 N.ar    1  UNL1       -0.1592
     19 N         139.8291  140.0581  166.2114 N.ar    1  UNL1       -0.1869
     20 N         142.2623  141.5123  169.7064 N.pl3   1  UNL1       -0.2987
     21 C         143.5058  142.3175  169.4713 C.3     1  UNL1        0.1124
     22 C         141.8298  141.1918  171.1064 C.3     1  UNL1        0.1387
     23 C         140.5863  140.3865  171.3415 C.3     1  UNL1        0.2269
     24 O         139.7752  139.9018  170.1766 O.3     1  UNL1       -0.4692
     25 N         142.2330  137.5411  161.5183 N.pl3   1  UNL1       -0.3315
     26 H         142.0300  136.6804  161.9511 H       1  UNL1        0.1469
     27 C         143.6153  138.1169  161.6055 C.3     1  UNL1        0.0871
     28 C         144.5927  143.1012  164.7994 C.3     1  UNL1        0.0896
     29 N         144.3483  141.8551  164.0010 N.3     1  UNL1       -0.2715
     30 C         143.9374  141.9551  162.5618 C.3     1  UNL1        0.0722
     31 C         143.6931  140.7090  161.7633 C.3     1  UNL1        0.0191
     32 C         143.8596  139.3630  162.4040 C.3     1  UNL1        0.0223
     33 C         144.2705  139.2630  163.8432 C.3     1  UNL1        0.0191
     34 C         144.5148  140.5091  164.6417 C.3     1  UNL1        0.0722
@<TRIPOS>BOND
     1    28    29    1
     2    29    30    1
     3    30    31    1
     4    31    32    1
     5    32    27    1
     6    27    25    1
     7    25     1    1
     8     1     2   ar
     9     2     3   ar
    10     3     4   ar
    11     4     5   ar
    12     5     6   ar
    13     6     7   ar
    14     7     8   ar
    15     8    11    1
    16    11    12   ar
    17    12    13   ar
    18    13    14   ar
    19    14    15   ar
    20    15    16   ar
    21    16    17   ar
    22    17    18   ar
    23    18    19   ar
    24    16    20    1
    25    20    21    1
    26    20    22    1
    27    22    23    1
    28    23    24    1
    29     8     9   ar
    30     9    10   ar
    31    32    33    1
    32    33    34    1
    33    34    29    1
    34    10     1   ar
    35    10     5   ar
    36    19    11   ar
    37    19    14   ar
    38    24    15    1
    39    25    26    1
@<TRIPOS>MOLECULE
*****
 34 39 0 0 0
SMALL
GASTEIGER

@<TRIPOS>ATOM
      1 C         140.4412  140.0671  166.4359 C.ar    1  UNL1        0.0625
      2 C         139.4380  139.9489  167.5448 C.ar    1  UNL1        0.0158
      3 C         138.2448  139.0540  167.3845 C.ar    1  UNL1        0.0014
      4 C         138.0549  138.2774  166.1153 C.ar    1  UNL1        0.0016
      5 C         139.0581  138.3957  165.0064 C.ar    1  UNL1        0.0189
      6 C         138.8681  137.6191  163.7372 C.ar    1  UNL1        0.0032
      7 C         139.8713  137.7373  162.6283 C.ar    1  UNL1        0.0223
      8 C         141.0644  138.6321  162.7887 C.ar    1  UNL1        0.1188
      9 N         141.2544  139.4087  164.0577 N.ar    1  UNL1       -0.2410
     10 C         140.2512  139.2905  165.1667 C.ar    1  UNL1        0.0944
     11 C         142.0676  138.7503  161.6797 C.ar    1  UNL1        0.2041
     12 N         143.1290  137.7463  161.3402 N.ar    1  UNL1       -0.1253
     13 N         143.9029  138.2688  160.1663 N.ar    1  UNL1       -0.1237
     14 C         143.3198  139.5958  159.7803 C.ar    1  UNL1        0.2218
     15 C         143.6752  140.5717  158.6979 C.ar    1  UNL1        0.1907
     16 C         142.8962  141.8451  158.5509 C.ar    1  UNL1        0.1067
     17 C         141.7619  142.1427  159.4863 C.ar    1  UNL1        0.1382
     18 N         141.4066  141.1669  160.5686 N.ar    1  UNL1       -0.1592
     19 N         142.1856  139.8934  160.7156 N.ar    1  UNL1       -0.1869
     20 N         143.2516  142.8209  157.4686 N.pl3   1  UNL1       -0.2987
     21 C         142.4726  144.0944  157.3216 C.3     1  UNL1        0.1124
     22 C         144.3858  142.5233  156.5333 C.3     1  UNL1        0.1387
     23 C         145.1647  141.2499  156.6803 C.3     1  UNL1        0.2269
     24 O         144.8094  140.2740  157.7626 O.3     1  UNL1       -0.4692
     25 N         141.6344  140.9619  166.5961 N.pl3   1  UNL1       -0.3315
     26 H         142.5407  140.5776  166.6016 H       1  UNL1        0.1469
     27 C         141.4465  142.4424  166.7479 C.3     1  UNL1        0.0871
     28 C         139.6050  145.7274  162.0771 C.3     1  UNL1        0.0896
     29 N         140.0654  144.9062  163.2447 N.3     1  UNL1       -0.2715
     30 C         139.1295  144.6322  164.3846 C.3     1  UNL1        0.0722
     31 C         139.5899  143.8109  165.5523 C.3     1  UNL1        0.0191
     32 C         140.9862  143.2636  165.5802 C.3     1  UNL1        0.0223
     33 C         141.9221  143.5375  164.4404 C.3     1  UNL1        0.0191
     34 C         141.4617  144.3588  163.2727 C.3     1  UNL1        0.0722
@<TRIPOS>BOND
     1    28    29    1
     2    29    30    1
     3    30    31    1
     4    31    32    1
     5    32    27    1
     6    27    25    1
     7    25     1    1
     8     1     2   ar
     9     2     3   ar
    10     3     4   ar
    11     4     5   ar
    12     5     6   ar
    13     6     7   ar
    14     7     8   ar
    15     8    11    1
    16    11    12   ar
    17    12    13   ar
    18    13    14   ar
    19    14    15   ar
    20    15    16   ar
    21    16    17   ar
    22    17    18   ar
    23    18    19   ar
    24    16    20    1
    25    20    21    1
    26    20    22    1
    27    22    23    1
    28    23    24    1
    29     8     9   ar
    30     9    10   ar
    31    32    33    1
    32    33    34    1
    33    34    29    1
    34    10     1   ar
    35    10     5   ar
    36    19    11   ar
    37    19    14   ar
    38    24    15    1
    39    25    26    1
@<TRIPOS>MOLECULE
*****
 34 39 0 0 0
SMALL
GASTEIGER

@<TRIPOS>ATOM
      1 C         142.2208  140.7506  166.9165 C.ar    1  UNL1        0.0625
      2 C         142.5476  140.9591  168.3655 C.ar    1  UNL1        0.0158
      3 C         141.5410  140.6052  169.4198 C.ar    1  UNL1        0.0014
      4 C         140.2077  140.0428  169.0251 C.ar    1  UNL1        0.0016
      5 C         139.8809  139.8342  167.5761 C.ar    1  UNL1        0.0189
      6 C         138.5475  139.2718  167.1814 C.ar    1  UNL1        0.0032
      7 C         138.2207  139.0632  165.7324 C.ar    1  UNL1        0.0223
      8 C         139.2272  139.4171  164.6781 C.ar    1  UNL1        0.1188
      9 N         140.5605  139.9795  165.0727 N.ar    1  UNL1       -0.2410
     10 C         140.8874  140.1881  166.5218 C.ar    1  UNL1        0.0944
     11 C         138.9004  139.2085  163.2289 C.ar    1  UNL1        0.2041
     12 N         138.3325  137.9588  162.6242 N.ar    1  UNL1       -0.1253
     13 N         138.1653  138.1910  161.1517 N.ar    1  UNL1       -0.1237
     14 C         138.6298  139.5842  160.8465 C.ar    1  UNL1        0.2218
     15 C         138.6977  140.3615  159.5654 C.ar    1  UNL1        0.1907
     16 C         139.2200  141.7676  159.5680 C.ar    1  UNL1        0.1067
     17 C         139.6744  142.3965  160.8519 C.ar    1  UNL1        0.1382
     18 N         139.6064  141.6192  162.1330 N.ar    1  UNL1       -0.1592
     19 N         139.0841  140.2131  162.1303 N.ar    1  UNL1       -0.1869
     20 N         139.2880  142.5449  158.2870 N.pl3   1  UNL1       -0.2987
     21 C         139.8103  143.9510  158.2896 C.3     1  UNL1        0.1124
     22 C         138.8336  141.9160  157.0032 C.3     1  UNL1        0.1387
     23 C         138.3113  140.5099  157.0005 C.3     1  UNL1        0.2269
     24 O         138.2434  139.7326  158.2816 O.3     1  UNL1       -0.4692
     25 N         143.2273  141.1045  165.8620 N.pl3   1  UNL1       -0.3315
     26 H         143.6579  140.3937  165.3342 H       1  UNL1        0.1469
     27 C         143.5778  142.5414  165.6120 C.3     1  UNL1        0.0871
     28 C         140.1290  145.8893  162.0208 C.3     1  UNL1        0.0896
     29 N         140.9912  145.0523  162.9185 N.3     1  UNL1       -0.2715
     30 C         140.4133  144.4493  164.1645 C.3     1  UNL1        0.0722
     31 C         141.2755  143.6123  165.0623 C.3     1  UNL1        0.0191
     32 C         142.7156  143.3784  164.7141 C.3     1  UNL1        0.0223
     33 C         143.2936  143.9813  163.4682 C.3     1  UNL1        0.0191
     34 C         142.4314  144.8183  162.5704 C.3     1  UNL1        0.0722
@<TRIPOS>BOND
     1    28    29    1
     2    29    30    1
     3    30    31    1
     4    31    32    1
     5    32    27    1
     6    27    25    1
     7    25     1    1
     8     1     2   ar
     9     2     3   ar
    10     3     4   ar
    11     4     5   ar
    12     5     6   ar
    13     6     7   ar
    14     7     8   ar
    15     8    11    1
    16    11    12   ar
    17    12    13   ar
    18    13    14   ar
    19    14    15   ar
    20    15    16   ar
    21    16    17   ar
    22    17    18   ar
    23    18    19   ar
    24    16    20    1
    25    20    21    1
    26    20    22    1
    27    22    23    1
    28    23    24    1
    29     8     9   ar
    30     9    10   ar
    31    32    33    1
    32    33    34    1
    33    34    29    1
    34    10     1   ar
    35    10     5   ar
    36    19    11   ar
    37    19    14   ar
    38    24    15    1
    39    25    26    1
@<TRIPOS>MOLECULE
*****
 34 39 0 0 0
SMALL
GASTEIGER

@<TRIPOS>ATOM
      1 C         142.6093  139.6640  167.1827 C.ar    1  UNL1        0.0625
      2 C         142.9833  138.9250  168.4333 C.ar    1  UNL1        0.0158
      3 C         142.4901  139.4073  169.7653 C.ar    1  UNL1        0.0014
      4 C         141.6230  140.6286  169.8466 C.ar    1  UNL1        0.0016
      5 C         141.2491  141.3676  168.5960 C.ar    1  UNL1        0.0189
      6 C         140.3820  142.5888  168.6774 C.ar    1  UNL1        0.0032
      7 C         140.0080  143.3279  167.4268 C.ar    1  UNL1        0.0223
      8 C         140.5012  142.8455  166.0948 C.ar    1  UNL1        0.1188
      9 N         141.3682  141.6243  166.0134 N.ar    1  UNL1       -0.2410
     10 C         141.7423  140.8853  167.2640 C.ar    1  UNL1        0.0944
     11 C         140.1272  143.5846  164.8441 C.ar    1  UNL1        0.2041
     12 N         138.9794  144.5384  164.6934 N.ar    1  UNL1       -0.1253
     13 N         138.9783  145.0428  163.2808 N.ar    1  UNL1       -0.1237
     14 C         140.1253  144.4006  162.5584 C.ar    1  UNL1        0.2218
     15 C         140.6150  144.5202  161.1456 C.ar    1  UNL1        0.1907
     16 C         141.8147  143.7384  160.6990 C.ar    1  UNL1        0.1067
     17 C         142.5248  142.8371  161.6653 C.ar    1  UNL1        0.1382
     18 N         142.0352  142.7177  163.0780 N.ar    1  UNL1       -0.1592
     19 N         140.8354  143.4994  163.5246 N.ar    1  UNL1       -0.1869
     20 N         142.3044  143.8579  159.2863 N.pl3   1  UNL1       -0.2987
     21 C         143.5042  143.0761  158.8397 C.3     1  UNL1        0.1124
     22 C         141.5943  144.7591  158.3201 C.3     1  UNL1        0.1387
     23 C         140.3945  145.5409  158.7667 C.3     1  UNL1        0.2269
     24 O         139.9049  145.4214  160.1794 O.3     1  UNL1       -0.4692
     25 N         143.1025  139.1817  165.8506 N.pl3   1  UNL1       -0.3315
     26 H         143.7958  139.6887  165.3694 H       1  UNL1        0.1469
     27 C         142.5392  137.9271  165.2518 C.3     1  UNL1        0.0871
     28 C         137.7110  138.2032  161.7004 C.3     1  UNL1        0.0896
     29 N         138.9181  138.1342  162.5881 N.3     1  UNL1       -0.2715
     30 C         138.7674  138.2911  164.0723 C.3     1  UNL1        0.0722
     31 C         139.9745  138.2221  164.9602 C.3     1  UNL1        0.0191
     32 C         141.3321  137.9961  164.3639 C.3     1  UNL1        0.0223
     33 C         141.4828  137.8392  162.8798 C.3     1  UNL1        0.0191
     34 C         140.2758  137.9083  161.9919 C.3     1  UNL1        0.0722
@<TRIPOS>BOND
     1    28    29    1
     2    29    30    1
     3    30    31    1
     4    31    32    1
     5    32    27    1
     6    27    25    1
     7    25     1    1
     8     1     2   ar
     9     2     3   ar
    10     3     4   ar
    11     4     5   ar
    12     5     6   ar
    13     6     7   ar
    14     7     8   ar
    15     8    11    1
    16    11    12   ar
    17    12    13   ar
    18    13    14   ar
    19    14    15   ar
    20    15    16   ar
    21    16    17   ar
    22    17    18   ar
    23    18    19   ar
    24    16    20    1
    25    20    21    1
    26    20    22    1
    27    22    23    1
    28    23    24    1
    29     8     9   ar
    30     9    10   ar
    31    32    33    1
    32    33    34    1
    33    34    29    1
    34    10     1   ar
    35    10     5   ar
    36    19    11   ar
    37    19    14   ar
    38    24    15    1
    39    25    26    1
@<TRIPOS>MOLECULE
*****
 34 39 0 0 0
SMALL
GASTEIGER

@<TRIPOS>ATOM
      1 C         138.4649  139.7841  164.6660 C.ar    1  UNL1        0.0625
      2 C         138.4207  138.9256  165.8953 C.ar    1  UNL1        0.0158
      3 C         139.0227  139.4197  167.1772 C.ar    1  UNL1        0.0014
      4 C         139.6688  140.7723  167.2300 C.ar    1  UNL1        0.0016
      5 C         139.7131  141.6308  166.0008 C.ar    1  UNL1        0.0189
      6 C         140.3592  142.9835  166.0536 C.ar    1  UNL1        0.0032
      7 C         140.4035  143.8420  164.8244 C.ar    1  UNL1        0.0223
      8 C         139.8016  143.3479  163.5424 C.ar    1  UNL1        0.1188
      9 N         139.1554  141.9953  163.4896 N.ar    1  UNL1       -0.2410
     10 C         139.1111  141.1367  164.7188 C.ar    1  UNL1        0.0944
     11 C         139.8458  144.2065  162.3132 C.ar    1  UNL1        0.2041
     12 N         139.1509  145.5234  162.1320 N.ar    1  UNL1       -0.1253
     13 N         139.4683  146.0296  160.7562 N.ar    1  UNL1       -0.1237
     14 C         140.3595  145.0256  160.0871 C.ar    1  UNL1        0.2218
     15 C         140.9886  144.9918  158.7257 C.ar    1  UNL1        0.1907
     16 C         141.8511  143.8312  158.3268 C.ar    1  UNL1        0.1067
     17 C         142.0844  142.7044  159.2891 C.ar    1  UNL1        0.1382
     18 N         141.4552  142.7382  160.6503 N.ar    1  UNL1       -0.1592
     19 N         140.5928  143.8988  161.0493 N.ar    1  UNL1       -0.1869
     20 N         142.4803  143.7973  156.9656 N.pl3   1  UNL1       -0.2987
     21 C         143.3427  142.6367  156.5666 C.3     1  UNL1        0.1124
     22 C         142.2470  144.9241  156.0033 C.3     1  UNL1        0.1387
     23 C         141.3845  146.0847  156.4023 C.3     1  UNL1        0.2269
     24 O         140.7553  146.1185  157.7635 O.3     1  UNL1       -0.4692
     25 N         137.8630  139.2900  163.3840 N.pl3   1  UNL1       -0.3315
     26 H         137.0349  139.6965  163.0402 H       1  UNL1        0.1469
     27 C         138.5229  138.1765  162.6258 C.3     1  UNL1        0.0871
     28 C         144.1899  138.7726  160.7472 C.3     1  UNL1        0.0896
     29 N         142.7732  138.6236  161.2169 N.3     1  UNL1       -0.2715
     30 C         141.6445  139.1304  160.3687 C.3     1  UNL1        0.0722
     31 C         140.2278  138.9814  160.8384 C.3     1  UNL1        0.0191
     32 C         139.9396  138.3255  162.1562 C.3     1  UNL1        0.0223
     33 C         141.0682  137.8187  163.0044 C.3     1  UNL1        0.0191
     34 C         142.4850  137.9677  162.5347 C.3     1  UNL1        0.0722
@<TRIPOS>BOND
     1    28    29    1
     2    29    30    1
     3    30    31    1
     4    31    32    1
     5    32    27    1
     6    27    25    1
     7    25     1    1
     8     1     2   ar
     9     2     3   ar
    10     3     4   ar
    11     4     5   ar
    12     5     6   ar
    13     6     7   ar
    14     7     8   ar
    15     8    11    1
    16    11    12   ar
    17    12    13   ar
    18    13    14   ar
    19    14    15   ar
    20    15    16   ar
    21    16    17   ar
    22    17    18   ar
    23    18    19   ar
    24    16    20    1
    25    20    21    1
    26    20    22    1
    27    22    23    1
    28    23    24    1
    29     8     9   ar
    30     9    10   ar
    31    32    33    1
    32    33    34    1
    33    34    29    1
    34    10     1   ar
    35    10     5   ar
    36    19    11   ar
    37    19    14   ar
    38    24    15    1
    39    25    26    1
@<TRIPOS>MOLECULE
*****
 34 39 0 0 0
SMALL
GASTEIGER

@<TRIPOS>ATOM
      1 C         141.6348  140.8923  168.2260 C.ar    1  UNL1        0.0625
      2 C         141.3133  141.3188  169.6277 C.ar    1  UNL1        0.0158
      3 C         139.9694  141.0074  170.2168 C.ar    1  UNL1        0.0014
      4 C         138.9471  140.2695  169.4042 C.ar    1  UNL1        0.0016
      5 C         139.2686  139.8431  168.0026 C.ar    1  UNL1        0.0189
      6 C         138.2462  139.1052  167.1900 C.ar    1  UNL1        0.0032
      7 C         138.5676  138.6787  165.7883 C.ar    1  UNL1        0.0223
      8 C         139.9115  138.9901  165.1992 C.ar    1  UNL1        0.1188
      9 N         140.9338  139.7279  166.0117 N.ar    1  UNL1       -0.2410
     10 C         140.6124  140.1545  167.4134 C.ar    1  UNL1        0.0944
     11 C         140.2330  138.5636  163.7974 C.ar    1  UNL1        0.2041
     12 N         141.1077  137.4098  163.4056 N.ar    1  UNL1       -0.1253
     13 N         141.1515  137.3492  161.9074 N.ar    1  UNL1       -0.1237
     14 C         140.3038  138.4655  161.3734 C.ar    1  UNL1        0.2218
     15 C         139.9755  138.8955  159.9743 C.ar    1  UNL1        0.1907
     16 C         139.0794  140.0761  159.7434 C.ar    1  UNL1        0.1067
     17 C         138.5117  140.8267  160.9115 C.ar    1  UNL1        0.1382
     18 N         138.8401  140.3967  162.3105 N.ar    1  UNL1       -0.1592
     19 N         139.7361  139.2161  162.5415 N.ar    1  UNL1       -0.1869
     20 N         138.7511  140.5062  158.3444 N.pl3   1  UNL1       -0.2987
     21 C         137.8551  141.6868  158.1135 C.3     1  UNL1        0.1124
     22 C         139.3188  139.7556  157.1764 C.3     1  UNL1        0.1387
     23 C         140.2148  138.5750  157.4073 C.3     1  UNL1        0.2269
     24 O         140.5432  138.1450  158.8063 O.3     1  UNL1       -0.4692
     25 N         142.9787  141.2037  167.6368 N.pl3   1  UNL1       -0.3315
     26 H         143.7151  140.5557  167.7207 H       1  UNL1        0.1469
     27 C         143.2005  142.5024  166.9198 C.3     1  UNL1        0.0871
     28 C         144.8458  142.5005  161.1498 C.3     1  UNL1        0.0896
     29 N         144.4345  142.5011  162.5922 N.3     1  UNL1       -0.2715
     30 C         144.3718  141.2108  163.3547 C.3     1  UNL1        0.0722
     31 C         143.9604  141.2112  164.7972 C.3     1  UNL1        0.0191
     32 C         143.6118  142.5020  165.4772 C.3     1  UNL1        0.0223
     33 C         143.6745  143.7922  164.7148 C.3     1  UNL1        0.0191
     34 C         144.0858  143.7918  163.2723 C.3     1  UNL1        0.0722
@<TRIPOS>BOND
     1    28    29    1
     2    29    30    1
     3    30    31    1
     4    31    32    1
     5    32    27    1
     6    27    25    1
     7    25     1    1
     8     1     2   ar
     9     2     3   ar
    10     3     4   ar
    11     4     5   ar
    12     5     6   ar
    13     6     7   ar
    14     7     8   ar
    15     8    11    1
    16    11    12   ar
    17    12    13   ar
    18    13    14   ar
    19    14    15   ar
    20    15    16   ar
    21    16    17   ar
    22    17    18   ar
    23    18    19   ar
    24    16    20    1
    25    20    21    1
    26    20    22    1
    27    22    23    1
    28    23    24    1
    29     8     9   ar
    30     9    10   ar
    31    32    33    1
    32    33    34    1
    33    34    29    1
    34    10     1   ar
    35    10     5   ar
    36    19    11   ar
    37    19    14   ar
    38    24    15    1
    39    25    26    1
@<TRIPOS>MOLECULE
*****
 34 39 0 0 0
SMALL
GASTEIGER

@<TRIPOS>ATOM
      1 C         141.2002  144.8962  163.1836 C.ar    1  UNL1        0.0625
      2 C         142.3481  145.5314  163.9107 C.ar    1  UNL1        0.0158
      3 C         143.7539  145.0987  163.6165 C.ar    1  UNL1        0.0014
      4 C         144.0118  144.0309  162.5951 C.ar    1  UNL1        0.0016
      5 C         142.8638  143.3957  161.8679 C.ar    1  UNL1        0.0189
      6 C         143.1217  142.3279  160.8466 C.ar    1  UNL1        0.0032
      7 C         141.9739  141.6927  160.1194 C.ar    1  UNL1        0.0223
      8 C         140.5681  142.1253  160.4136 C.ar    1  UNL1        0.1188
      9 N         140.3101  143.1930  161.4350 N.ar    1  UNL1       -0.2410
     10 C         141.4580  143.8283  162.1622 C.ar    1  UNL1        0.0944
     11 C         139.4201  141.4900  159.6864 C.ar    1  UNL1        0.2041
     12 N         138.6821  140.2552  160.1114 N.ar    1  UNL1       -0.1253
     13 N         137.6145  139.9801  159.0942 N.ar    1  UNL1       -0.1237
     14 C         137.6927  141.0449  158.0407 C.ar    1  UNL1        0.2218
     15 C         136.8919  141.2854  156.7953 C.ar    1  UNL1        0.1907
     16 C         137.2070  142.4590  155.9159 C.ar    1  UNL1        0.1067
     17 C         138.3230  143.3922  156.2819 C.ar    1  UNL1        0.1382
     18 N         139.1237  143.1517  157.5273 N.ar    1  UNL1       -0.1592
     19 N         138.8086  141.9781  158.4067 N.ar    1  UNL1       -0.1869
     20 N         136.4063  142.6995  154.6705 N.pl3   1  UNL1       -0.2987
     21 C         136.7214  143.8731  153.7912 C.3     1  UNL1        0.1124
     22 C         135.2904  141.7663  154.3046 C.3     1  UNL1        0.1387
     23 C         134.9753  140.5927  155.1839 C.3     1  UNL1        0.2269
     24 O         135.7760  140.3522  156.4293 O.3     1  UNL1       -0.4692
     25 N         139.7943  145.3287  163.4778 N.pl3   1  UNL1       -0.3315
     26 H         139.3222  145.9260  162.8536 H       1  UNL1        0.1469
     27 C         139.1078  144.8511  164.7230 C.3     1  UNL1        0.0871
     28 C         139.1046  139.0101  166.0950 C.3     1  UNL1        0.0896
     29 N         139.1053  140.4703  165.7519 N.3     1  UNL1       -0.2715
     30 C         140.0565  141.4025  166.4423 C.3     1  UNL1        0.0722
     31 C         140.0573  142.8627  166.0994 C.3     1  UNL1        0.0191
     32 C         139.1070  143.3909  165.0660 C.3     1  UNL1        0.0223
     33 C         138.1558  142.4588  164.3756 C.3     1  UNL1        0.0191
     34 C         138.1550  140.9986  164.7186 C.3     1  UNL1        0.0722
@<TRIPOS>BOND
     1    28    29    1
     2    29    30    1
     3    30    31    1
     4    31    32    1
     5    32    27    1
     6    27    25    1
     7    25     1    1
     8     1     2   ar
     9     2     3   ar
    10     3     4   ar
    11     4     5   ar
    12     5     6   ar
    13     6     7   ar
    14     7     8   ar
    15     8    11    1
    16    11    12   ar
    17    12    13   ar
    18    13    14   ar
    19    14    15   ar
    20    15    16   ar
    21    16    17   ar
    22    17    18   ar
    23    18    19   ar
    24    16    20    1
    25    20    21    1
    26    20    22    1
    27    22    23    1
    28    23    24    1
    29     8     9   ar
    30     9    10   ar
    31    32    33    1
    32    33    34    1
    33    34    29    1
    34    10     1   ar
    35    10     5   ar
    36    19    11   ar
    37    19    14   ar
    38    24    15    1
    39    25    26    1
@<TRIPOS>MOLECULE
*****
 34 39 0 0 0
SMALL
GASTEIGER

@<TRIPOS>ATOM
      1 C         143.2056  142.7672  165.4551 C.ar    1  UNL1        0.0625
      2 C         143.3510  142.1145  166.7978 C.ar    1  UNL1        0.0158
      3 C         142.1568  141.9672  167.6934 C.ar    1  UNL1        0.0014
      4 C         140.8171  142.4725  167.2464 C.ar    1  UNL1        0.0016
      5 C         140.6717  143.1252  165.9037 C.ar    1  UNL1        0.0189
      6 C         139.3320  143.6306  165.4567 C.ar    1  UNL1        0.0032
      7 C         139.1864  144.2833  164.1140 C.ar    1  UNL1        0.0223
      8 C         140.3807  144.4306  163.2184 C.ar    1  UNL1        0.1188
      9 N         141.7203  143.9253  163.6654 N.ar    1  UNL1       -0.2410
     10 C         141.8659  143.2726  165.0081 C.ar    1  UNL1        0.0944
     11 C         140.2352  145.0834  161.8756 C.ar    1  UNL1        0.2041
     12 N         139.3816  146.2766  161.5632 N.ar    1  UNL1       -0.1253
     13 N         139.5367  146.5881  160.1041 N.ar    1  UNL1       -0.1237
     14 C         140.4860  145.5874  159.5148 C.ar    1  UNL1        0.2218
     15 C         141.0131  145.4028  158.1226 C.ar    1  UNL1        0.1907
     16 C         141.9720  144.2883  157.8253 C.ar    1  UNL1        0.1067
     17 C         142.4037  143.3583  158.9203 C.ar    1  UNL1        0.1382
     18 N         141.8766  143.5429  160.3124 N.ar    1  UNL1       -0.1592
     19 N         140.9177  144.6574  160.6097 N.ar    1  UNL1       -0.1869
     20 N         142.4991  144.1037  156.4332 N.pl3   1  UNL1       -0.2987
     21 C         143.4580  142.9892  156.1360 C.3     1  UNL1        0.1124
     22 C         142.0674  145.0337  155.3384 C.3     1  UNL1        0.1387
     23 C         141.1085  146.1483  155.6357 C.3     1  UNL1        0.2269
     24 O         140.5814  146.3328  157.0278 O.3     1  UNL1       -0.4692
     25 N         144.3998  142.9146  164.5594 N.pl3   1  UNL1       -0.3315
     26 H         144.6659  143.8057  164.2365 H       1  UNL1        0.1469
     27 C         145.1883  141.7042  164.1557 C.3     1  UNL1        0.0871
     28 C         142.9891  137.9237  160.0483 C.3     1  UNL1        0.0896
     29 N         143.5389  138.8687  161.0752 N.3     1  UNL1       -0.2715
     30 C         143.8551  140.2856  160.6975 C.3     1  UNL1        0.0722
     31 C         144.4049  141.2307  161.7243 C.3     1  UNL1        0.0191
     32 C         144.6385  140.7590  163.1289 C.3     1  UNL1        0.0223
     33 C         144.3224  139.3422  163.5066 C.3     1  UNL1        0.0191
     34 C         143.7726  138.3971  162.4798 C.3     1  UNL1        0.0722
@<TRIPOS>BOND
     1    28    29    1
     2    29    30    1
     3    30    31    1
     4    31    32    1
     5    32    27    1
     6    27    25    1
     7    25     1    1
     8     1     2   ar
     9     2     3   ar
    10     3     4   ar
    11     4     5   ar
    12     5     6   ar
    13     6     7   ar
    14     7     8   ar
    15     8    11    1
    16    11    12   ar
    17    12    13   ar
    18    13    14   ar
    19    14    15   ar
    20    15    16   ar
    21    16    17   ar
    22    17    18   ar
    23    18    19   ar
    24    16    20    1
    25    20    21    1
    26    20    22    1
    27    22    23    1
    28    23    24    1
    29     8     9   ar
    30     9    10   ar
    31    32    33    1
    32    33    34    1
    33    34    29    1
    34    10     1   ar
    35    10     5   ar
    36    19    11   ar
    37    19    14   ar
    38    24    15    1
    39    25    26    1
