@<TRIPOS>MOLECULE
*****
 35 38 0 0 0
SMALL
GASTEIGER

@<TRIPOS>ATOM
      1 N         144.6765  141.3137  164.3393 N.3     1  UNL1       -0.2673
      2 C         144.2671  139.8864  164.5513 C.3     1  UNL1        0.1035
      3 C         143.3329  139.5324  165.6702 C.3     1  UNL1        0.1470
      4 C         142.3988  139.1784  166.7892 C.3     1  UNL1        0.1036
      5 N         141.8741  140.2517  167.6962 N.3     1  UNL1       -0.2653
      6 C         142.2836  141.6792  167.4842 C.3     1  UNL1        0.1036
      7 C         143.2177  142.0331  166.3652 C.3     1  UNL1        0.1470
      8 C         144.1519  142.3871  165.2463 C.3     1  UNL1        0.1035
      9 O         142.8083  140.6058  166.5772 O.3     1  UNL1       -0.3530
     10 C         145.6107  141.6677  163.2203 C.3     1  UNL1        0.0913
     11 C         145.0643  142.1814  161.9213 C.3     1  UNL1        0.1087
     12 N         144.5368  143.5828  161.8312 N.3     1  UNL1       -0.1779
     13 H         144.8803  144.0800  162.6529 H       1  UNL1        0.1488
     14 S         143.0579  143.8247  161.7655 S.O2    1  UNL1        0.0637
     15 O         143.2295  145.0884  162.5552 O.2     1  UNL1       -0.1529
     16 O         142.8863  142.5610  160.9758 O.2     1  UNL1       -0.1529
     17 C         141.4529  145.2359  159.2993 C.3     1  UNL1        0.0555
     18 C         140.8413  144.7153  160.5661 C.ar    1  UNL1        0.0998
     19 N         139.3846  144.7520  160.9218 N.ar    1  UNL1       -0.1714
     20 N         139.2220  144.1260  162.2752 N.ar    1  UNL1       -0.2372
     21 C         137.9300  143.9537  163.0175 C.3     1  UNL1        0.1548
     22 C         140.5783  143.7024  162.7560 C.ar    1  UNL1        0.1546
     23 CL        140.8806  143.0323  164.0635 Cl      1  UNL1       -0.0603
     24 C         141.5791  144.0666  161.6997 C.ar    1  UNL1        0.1649
     25 C         140.9400  139.8978  168.8152 C.3     1  UNL1        0.1202
     26 C         139.4879  140.2630  168.7239 C.3     1  UNL1        0.2226
     27 O         138.5257  139.3447  168.0307 O.3     1  UNL1       -0.4740
     28 C         138.6359  139.1209  166.5516 C.ar    1  UNL1        0.1387
     29 C         138.6898  140.2934  165.6176 C.ar    1  UNL1        0.0376
     30 C         138.8000  140.0696  164.1384 C.ar    1  UNL1        0.0134
     31 C         138.8562  138.6733  163.5933 C.ar    1  UNL1        0.0686
     32 C         138.8023  137.5008  164.5273 C.ar    1  UNL1        0.0134
     33 C         138.6921  137.7245  166.0064 C.ar    1  UNL1        0.0376
     34 C         138.9664  138.4495  162.1142 C.1     1  UNL1        0.1004
     35 N         139.0766  138.2257  160.6351 N.1     1  UNL1       -0.1908
@<TRIPOS>BOND
     1    17    18    1
     2    18    19   ar
     3    19    20   ar
     4    20    21    1
     5    20    22   ar
     6    22    23    1
     7    22    24   ar
     8    24    14    1
     9    14    15    2
    10    14    16    2
    11    14    12    1
    12    12    11    1
    13    11    10    1
    14    10     1    1
    15     1     2    1
    16     2     3    1
    17     3     4    1
    18     4     5    1
    19     5    25    1
    20    25    26    1
    21    26    27    1
    22    27    28    1
    23    28    29   ar
    24    29    30   ar
    25    30    31   ar
    26    31    34    1
    27    34    35    3
    28    31    32   ar
    29    32    33   ar
    30     5     6    1
    31     6     7    1
    32     7     8    1
    33     7     9    1
    34    24    18   ar
    35     8     1    1
    36     9     3    1
    37    33    28   ar
    38    12    13    1
@<TRIPOS>MOLECULE
*****
 35 38 0 0 0
SMALL
GASTEIGER

@<TRIPOS>ATOM
      1 N         142.8631  140.1116  160.0731 N.3     1  UNL1       -0.2673
      2 C         143.6815  141.3043  160.4704 C.3     1  UNL1        0.1035
      3 C         143.0402  142.6572  160.5611 C.3     1  UNL1        0.1470
      4 C         142.3990  144.0103  160.6518 C.3     1  UNL1        0.1036
      5 N         140.9395  144.1706  160.3452 N.3     1  UNL1       -0.2653
      6 C         140.1212  142.9779  159.9478 C.3     1  UNL1        0.1036
      7 C         140.7624  141.6249  159.8571 C.3     1  UNL1        0.1470
      8 C         141.4036  140.2720  159.7665 C.3     1  UNL1        0.1035
      9 O         141.5807  142.8176  160.2545 O.3     1  UNL1       -0.3530
     10 C         143.5043  138.7586  159.9824 C.3     1  UNL1        0.0913
     11 C         143.7075  137.9402  161.2229 C.3     1  UNL1        0.1087
     12 N         144.5142  138.4912  162.3612 N.3     1  UNL1       -0.1779
     13 H         145.1320  137.7422  162.6739 H       1  UNL1        0.1488
     14 S         143.8235  139.0212  163.5826 S.O2    1  UNL1        0.0637
     15 O         144.9957  139.9158  163.8574 O.2     1  UNL1       -0.1529
     16 O         142.6513  138.1266  163.3078 O.2     1  UNL1       -0.1529
     17 C         141.7896  141.5713  163.6815 C.3     1  UNL1        0.0555
     18 C         142.1978  140.7233  164.8495 C.ar    1  UNL1        0.0998
     19 N         141.7429  140.8986  166.2680 N.ar    1  UNL1       -0.1714
     20 N         142.3966  139.8348  167.0993 N.ar    1  UNL1       -0.2372
     21 C         142.2220  139.6382  168.5761 C.3     1  UNL1        0.1548
     22 C         143.2556  139.0020  166.1944 C.ar    1  UNL1        0.1546
     23 CL        144.0907  137.8265  166.6076 Cl      1  UNL1       -0.0603
     24 C         143.1327  139.5511  164.8040 C.ar    1  UNL1        0.1649
     25 C         140.2983  145.5236  160.4359 C.3     1  UNL1        0.1202
     26 C         139.7398  146.0028  161.7430 C.3     1  UNL1        0.2226
     27 O         138.4202  145.4825  162.2307 O.3     1  UNL1       -0.4740
     28 C         138.3607  144.2025  163.0106 C.ar    1  UNL1        0.1387
     29 C         138.9045  144.1495  164.4075 C.ar    1  UNL1        0.0376
     30 C         138.8450  142.8695  165.1874 C.ar    1  UNL1        0.0134
     31 C         138.2417  141.6427  164.5703 C.ar    1  UNL1        0.0686
     32 C         137.6979  141.6957  163.1734 C.ar    1  UNL1        0.0134
     33 C         137.7574  142.9756  162.3935 C.ar    1  UNL1        0.0376
     34 C         138.1822  140.3628  165.3502 C.1     1  UNL1        0.1004
     35 N         138.1227  139.0828  166.1302 N.1     1  UNL1       -0.1908
@<TRIPOS>BOND
     1    17    18    1
     2    18    19   ar
     3    19    20   ar
     4    20    21    1
     5    20    22   ar
     6    22    23    1
     7    22    24   ar
     8    24    14    1
     9    14    15    2
    10    14    16    2
    11    14    12    1
    12    12    11    1
    13    11    10    1
    14    10     1    1
    15     1     2    1
    16     2     3    1
    17     3     4    1
    18     4     5    1
    19     5    25    1
    20    25    26    1
    21    26    27    1
    22    27    28    1
    23    28    29   ar
    24    29    30   ar
    25    30    31   ar
    26    31    34    1
    27    34    35    3
    28    31    32   ar
    29    32    33   ar
    30     5     6    1
    31     6     7    1
    32     7     8    1
    33     7     9    1
    34    24    18   ar
    35     8     1    1
    36     9     3    1
    37    33    28   ar
    38    12    13    1
@<TRIPOS>MOLECULE
*****
 35 38 0 0 0
SMALL
GASTEIGER

@<TRIPOS>ATOM
      1 N         141.3016  144.6456  163.6909 N.3     1  UNL1       -0.2673
      2 C         142.7190  144.2017  163.9002 C.3     1  UNL1        0.1035
      3 C         143.0569  143.2819  165.0359 C.3     1  UNL1        0.1470
      4 C         143.3947  142.3622  166.1717 C.3     1  UNL1        0.1036
      5 N         142.3152  141.8864  167.0981 N.3     1  UNL1       -0.2653
      6 C         140.8977  142.3303  166.8887 C.3     1  UNL1        0.1036
      7 C         140.5599  143.2501  165.7529 C.3     1  UNL1        0.1470
      8 C         140.2221  144.1698  164.6172 C.3     1  UNL1        0.1035
      9 O         141.9773  142.8061  165.9623 O.3     1  UNL1       -0.3530
     10 C         140.9638  145.5654  162.5551 C.3     1  UNL1        0.0913
     11 C         140.5632  144.9991  161.2251 C.3     1  UNL1        0.1087
     12 N         139.2069  144.3828  161.0501 N.3     1  UNL1       -0.1779
     13 H         138.6307  144.7144  161.8237 H       1  UNL1        0.1488
     14 S         139.0607  142.8905  161.0100 S.O2    1  UNL1        0.0637
     15 O         137.6465  143.0161  161.4940 O.2     1  UNL1       -0.1529
     16 O         140.4748  142.7650  160.5260 O.2     1  UNL1       -0.1529
     17 C         138.1274  141.1232  158.4302 C.3     1  UNL1        0.0555
     18 C         138.4855  140.5859  159.7841 C.ar    1  UNL1        0.0998
     19 N         138.4775  139.1419  160.1899 N.ar    1  UNL1       -0.1714
     20 N         138.9015  139.0618  161.6266 N.ar    1  UNL1       -0.2372
     21 C         139.0324  137.8074  162.4386 C.3     1  UNL1        0.1548
     22 C         139.1715  140.4563  162.1086 C.ar    1  UNL1        0.1546
     23 CL        139.6199  140.8412  163.4873 Cl      1  UNL1       -0.0603
     24 C         138.9145  141.3982  160.9699 C.ar    1  UNL1        0.1649
     25 C         142.6530  140.9666  168.2338 C.3     1  UNL1        0.1202
     26 C         142.4028  139.4932  168.1056 C.3     1  UNL1        0.2226
     27 O         143.3891  138.6251  167.3820 O.3     1  UNL1       -0.4740
     28 C         143.4903  138.6904  165.8869 C.ar    1  UNL1        0.1387
     29 C         144.7377  139.2179  165.2420 C.ar    1  UNL1        0.0376
     30 C         144.8388  139.2832  163.7468 C.ar    1  UNL1        0.0134
     31 C         143.6927  138.8211  162.8966 C.ar    1  UNL1        0.0686
     32 C         142.4454  138.2936  163.5415 C.ar    1  UNL1        0.0134
     33 C         142.3442  138.2283  165.0367 C.ar    1  UNL1        0.0376
     34 C         143.7940  138.8864  161.4015 C.1     1  UNL1        0.1004
     35 N         143.8952  138.9518  159.9063 N.1     1  UNL1       -0.1908
@<TRIPOS>BOND
     1    17    18    1
     2    18    19   ar
     3    19    20   ar
     4    20    21    1
     5    20    22   ar
     6    22    23    1
     7    22    24   ar
     8    24    14    1
     9    14    15    2
    10    14    16    2
    11    14    12    1
    12    12    11    1
    13    11    10    1
    14    10     1    1
    15     1     2    1
    16     2     3    1
    17     3     4    1
    18     4     5    1
    19     5    25    1
    20    25    26    1
    21    26    27    1
    22    27    28    1
    23    28    29   ar
    24    29    30   ar
    25    30    31   ar
    26    31    34    1
    27    34    35    3
    28    31    32   ar
    29    32    33   ar
    30     5     6    1
    31     6     7    1
    32     7     8    1
    33     7     9    1
    34    24    18   ar
    35     8     1    1
    36     9     3    1
    37    33    28   ar
    38    12    13    1
@<TRIPOS>MOLECULE
*****
 35 38 0 0 0
SMALL
GASTEIGER

@<TRIPOS>ATOM
      1 N         141.7886  138.0112  160.7737 N.3     1  UNL1       -0.2673
      2 C         140.2954  138.1179  160.6793 C.3     1  UNL1        0.1035
      3 C         139.4567  138.0209  161.9192 C.3     1  UNL1        0.1470
      4 C         138.6180  137.9239  163.1591 C.3     1  UNL1        0.1036
      5 N         139.2726  137.7201  164.4932 N.3     1  UNL1       -0.2653
      6 C         140.7659  137.6133  164.5875 C.3     1  UNL1        0.1036
      7 C         141.6045  137.7103  163.3477 C.3     1  UNL1        0.1470
      8 C         142.4431  137.8074  162.1078 C.3     1  UNL1        0.1035
      9 O         140.1113  137.8171  163.2534 O.3     1  UNL1       -0.3530
     10 C         142.6273  138.1082  159.5338 C.3     1  UNL1        0.0913
     11 C         143.3128  139.3976  159.1910 C.3     1  UNL1        0.1087
     12 N         142.6361  140.7056  159.4762 N.3     1  UNL1       -0.1779
     13 H         142.7887  141.2998  158.6613 H       1  UNL1        0.1488
     14 S         143.0338  141.5093  160.6786 S.O2    1  UNL1        0.0637
     15 O         144.3526  141.8198  160.0349 O.2     1  UNL1       -0.1529
     16 O         141.7151  141.1988  161.3223 O.2     1  UNL1       -0.1529
     17 C         144.8903  140.4691  163.1527 C.3     1  UNL1        0.0555
     18 C         144.2848  141.8348  163.0183 C.ar    1  UNL1        0.0998
     19 N         144.4264  142.9622  163.9975 N.ar    1  UNL1       -0.1714
     20 N         143.6606  144.1372  163.4654 N.ar    1  UNL1       -0.2372
     21 C         143.5322  145.4780  164.1255 C.3     1  UNL1        0.1548
     22 C         143.0457  143.7359  162.1574 C.ar    1  UNL1        0.1546
     23 CL        142.1945  144.6050  161.2799 Cl      1  UNL1       -0.0603
     24 C         143.4315  142.3130  161.8810 C.ar    1  UNL1        0.1649
     25 C         138.4340  137.6231  165.7331 C.3     1  UNL1        0.1202
     26 C         138.1587  138.8504  166.5503 C.3     1  UNL1        0.2226
     27 O         139.1901  139.9355  166.6448 O.3     1  UNL1       -0.4740
     28 C         139.1357  141.1055  165.7078 C.ar    1  UNL1        0.1387
     29 C         140.1640  142.1932  165.8056 C.ar    1  UNL1        0.0376
     30 C         140.1095  143.3632  164.8685 C.ar    1  UNL1        0.0134
     31 C         139.0269  143.4456  163.8336 C.ar    1  UNL1        0.0686
     32 C         137.9986  142.3579  163.7358 C.ar    1  UNL1        0.0134
     33 C         138.0530  141.1878  164.6728 C.ar    1  UNL1        0.0376
     34 C         138.9725  144.6156  162.8966 C.1     1  UNL1        0.1004
     35 N         138.9181  145.7857  161.9596 N.1     1  UNL1       -0.1908
@<TRIPOS>BOND
     1    17    18    1
     2    18    19   ar
     3    19    20   ar
     4    20    21    1
     5    20    22   ar
     6    22    23    1
     7    22    24   ar
     8    24    14    1
     9    14    15    2
    10    14    16    2
    11    14    12    1
    12    12    11    1
    13    11    10    1
    14    10     1    1
    15     1     2    1
    16     2     3    1
    17     3     4    1
    18     4     5    1
    19     5    25    1
    20    25    26    1
    21    26    27    1
    22    27    28    1
    23    28    29   ar
    24    29    30   ar
    25    30    31   ar
    26    31    34    1
    27    34    35    3
    28    31    32   ar
    29    32    33   ar
    30     5     6    1
    31     6     7    1
    32     7     8    1
    33     7     9    1
    34    24    18   ar
    35     8     1    1
    36     9     3    1
    37    33    28   ar
    38    12    13    1
@<TRIPOS>MOLECULE
*****
 35 38 0 0 0
SMALL
GASTEIGER

@<TRIPOS>ATOM
      1 N         141.8753  138.0360  160.7941 N.3     1  UNL1       -0.2673
      2 C         142.5252  137.8116  162.1272 C.3     1  UNL1        0.1035
      3 C         141.6825  137.7000  163.3630 C.3     1  UNL1        0.1470
      4 C         140.8399  137.5883  164.5990 C.3     1  UNL1        0.1036
      5 N         139.3473  137.7010  164.5017 N.3     1  UNL1       -0.2653
      6 C         138.6974  137.9254  163.1685 C.3     1  UNL1        0.1036
      7 C         139.5400  138.0371  161.9327 C.3     1  UNL1        0.1470
      8 C         140.3827  138.1487  160.6968 C.3     1  UNL1        0.1035
      9 O         140.1900  137.8127  163.2658 O.3     1  UNL1       -0.3530
     10 C         142.7180  138.1477  159.5581 C.3     1  UNL1        0.0913
     11 C         143.1957  139.4920  159.0950 C.3     1  UNL1        0.1087
     12 N         142.4669  140.7333  159.5173 N.3     1  UNL1       -0.1779
     13 H         142.4885  141.3722  158.7225 H       1  UNL1        0.1488
     14 S         142.9383  141.5105  160.7105 S.O2    1  UNL1        0.0637
     15 O         141.6361  141.2373  161.4029 O.2     1  UNL1       -0.1529
     16 O         144.2405  141.7837  160.0181 O.2     1  UNL1       -0.1529
     17 C         144.9083  140.4033  163.0648 C.3     1  UNL1        0.0555
     18 C         144.3152  141.7788  162.9859 C.ar    1  UNL1        0.0998
     19 N         144.5235  142.8868  163.9752 N.ar    1  UNL1       -0.1714
     20 N         143.7467  144.0806  163.5044 N.ar    1  UNL1       -0.2372
     21 C         143.6714  145.4111  164.1931 C.3     1  UNL1        0.1548
     22 C         143.0583  143.7103  162.2242 C.ar    1  UNL1        0.1546
     23 CL        142.1739  144.6054  161.4078 Cl      1  UNL1       -0.0603
     24 C         143.4097  142.2877  161.9037 C.ar    1  UNL1        0.1649
     25 C         138.5046  137.5894  165.7376 C.3     1  UNL1        0.1202
     26 C         138.0282  138.8290  166.4351 C.3     1  UNL1        0.2226
     27 O         138.1697  138.9538  167.9231 O.3     1  UNL1       -0.4740
     28 C         139.1743  139.9042  168.5038 C.ar    1  UNL1        0.1387
     29 C         140.3829  140.2973  167.7070 C.ar    1  UNL1        0.0376
     30 C         141.3876  141.2478  168.2878 C.ar    1  UNL1        0.0134
     31 C         141.1836  141.8053  169.6653 C.ar    1  UNL1        0.0686
     32 C         139.9750  141.4123  170.4621 C.ar    1  UNL1        0.0134
     33 C         138.9704  140.4618  169.8814 C.ar    1  UNL1        0.0376
     34 C         142.1882  142.7558  170.2460 C.1     1  UNL1        0.1004
     35 N         143.1929  143.7064  170.8268 N.1     1  UNL1       -0.1908
@<TRIPOS>BOND
     1    17    18    1
     2    18    19   ar
     3    19    20   ar
     4    20    21    1
     5    20    22   ar
     6    22    23    1
     7    22    24   ar
     8    24    14    1
     9    14    15    2
    10    14    16    2
    11    14    12    1
    12    12    11    1
    13    11    10    1
    14    10     1    1
    15     1     2    1
    16     2     3    1
    17     3     4    1
    18     4     5    1
    19     5    25    1
    20    25    26    1
    21    26    27    1
    22    27    28    1
    23    28    29   ar
    24    29    30   ar
    25    30    31   ar
    26    31    34    1
    27    34    35    3
    28    31    32   ar
    29    32    33   ar
    30     5     6    1
    31     6     7    1
    32     7     8    1
    33     7     9    1
    34    24    18   ar
    35     8     1    1
    36     9     3    1
    37    33    28   ar
    38    12    13    1
@<TRIPOS>MOLECULE
*****
 35 38 0 0 0
SMALL
GASTEIGER

@<TRIPOS>ATOM
      1 N         142.1067  138.2908  160.5796 N.3     1  UNL1       -0.2673
      2 C         142.7461  138.0240  161.9100 C.3     1  UNL1        0.1035
      3 C         141.8917  137.8309  163.1276 C.3     1  UNL1        0.1470
      4 C         141.0372  137.6377  164.3452 C.3     1  UNL1        0.1036
      5 N         139.5433  137.7114  164.2325 N.3     1  UNL1       -0.2653
      6 C         138.9038  137.9783  162.9020 C.3     1  UNL1        0.1036
      7 C         139.7583  138.1714  161.6845 C.3     1  UNL1        0.1470
      8 C         140.6127  138.3645  160.4669 C.3     1  UNL1        0.1035
      9 O         140.3977  137.9046  163.0148 O.3     1  UNL1       -0.3530
     10 C         142.9611  138.4839  159.3620 C.3     1  UNL1        0.0913
     11 C         142.4243  138.1339  158.0058 C.3     1  UNL1        0.1087
     12 N         143.3660  137.7563  156.9009 N.3     1  UNL1       -0.1779
     13 H         143.2570  138.4579  156.1685 H       1  UNL1        0.1488
     14 S         143.2455  136.4161  156.2381 S.O2    1  UNL1        0.0637
     15 O         144.6275  136.5702  155.6756 O.2     1  UNL1       -0.1529
     16 O         141.8636  136.2621  156.8006 O.2     1  UNL1       -0.1529
     17 C         144.1194  133.5506  157.5323 C.3     1  UNL1        0.0555
     18 C         143.5268  133.7588  156.1701 C.ar    1  UNL1        0.0998
     19 N         143.2318  132.6864  155.1637 N.ar    1  UNL1       -0.1714
     20 N         142.6477  133.3408  153.9468 N.ar    1  UNL1       -0.2372
     21 C         142.2070  132.6412  152.6953 C.3     1  UNL1        0.1548
     22 C         142.5818  134.8176  154.2012 C.ar    1  UNL1        0.1546
     23 CL        142.0636  135.8540  153.2487 Cl      1  UNL1       -0.0603
     24 C         143.1251  135.0760  155.5753 C.ar    1  UNL1        0.1649
     25 C         138.6888  137.5183  165.4501 C.3     1  UNL1        0.1202
     26 C         138.1135  138.7085  166.1591 C.3     1  UNL1        0.2226
     27 O         138.9855  139.8876  166.4740 O.3     1  UNL1       -0.4740
     28 C         138.9902  141.0808  165.5651 C.ar    1  UNL1        0.1387
     29 C         139.9753  142.1898  165.7884 C.ar    1  UNL1        0.0376
     30 C         139.9800  143.3831  164.8794 C.ar    1  UNL1        0.0134
     31 C         138.9997  143.4673  163.7472 C.ar    1  UNL1        0.0686
     32 C         138.0147  142.3584  163.5240 C.ar    1  UNL1        0.0134
     33 C         138.0099  141.1651  164.4329 C.ar    1  UNL1        0.0376
     34 C         139.0045  144.6605  162.8383 C.1     1  UNL1        0.1004
     35 N         139.0092  145.8538  161.9294 N.1     1  UNL1       -0.1908
@<TRIPOS>BOND
     1    17    18    1
     2    18    19   ar
     3    19    20   ar
     4    20    21    1
     5    20    22   ar
     6    22    23    1
     7    22    24   ar
     8    24    14    1
     9    14    15    2
    10    14    16    2
    11    14    12    1
    12    12    11    1
    13    11    10    1
    14    10     1    1
    15     1     2    1
    16     2     3    1
    17     3     4    1
    18     4     5    1
    19     5    25    1
    20    25    26    1
    21    26    27    1
    22    27    28    1
    23    28    29   ar
    24    29    30   ar
    25    30    31   ar
    26    31    34    1
    27    34    35    3
    28    31    32   ar
    29    32    33   ar
    30     5     6    1
    31     6     7    1
    32     7     8    1
    33     7     9    1
    34    24    18   ar
    35     8     1    1
    36     9     3    1
    37    33    28   ar
    38    12    13    1
@<TRIPOS>MOLECULE
*****
 35 38 0 0 0
SMALL
GASTEIGER

@<TRIPOS>ATOM
      1 N         142.1396  137.9672  160.9598 N.3     1  UNL1       -0.2673
      2 C         142.6866  137.8625  162.3525 C.3     1  UNL1        0.1035
      3 C         141.7521  137.8397  163.5256 C.3     1  UNL1        0.1470
      4 C         140.8175  137.8168  164.6987 C.3     1  UNL1        0.1036
      5 N         139.3360  137.8987  164.4790 N.3     1  UNL1       -0.2653
      6 C         138.7890  138.0033  163.0862 C.3     1  UNL1        0.1036
      7 C         139.7235  138.0262  161.9131 C.3     1  UNL1        0.1470
      8 C         140.6580  138.0490  160.7401 C.3     1  UNL1        0.1035
      9 O         140.2705  137.9215  163.3059 O.3     1  UNL1       -0.3530
     10 C         143.0742  137.9901  159.7867 C.3     1  UNL1        0.0913
     11 C         142.7064  138.7544  158.5496 C.3     1  UNL1        0.1087
     12 N         143.1950  138.2916  157.2090 N.3     1  UNL1       -0.1779
     13 H         142.8317  138.9500  156.5198 H       1  UNL1        0.1488
     14 S         142.8497  136.9168  156.7185 S.O2    1  UNL1        0.0637
     15 O         141.4792  137.0487  157.3136 O.2     1  UNL1       -0.1529
     16 O         144.2203  136.7849  156.1234 O.2     1  UNL1       -0.1529
     17 C         141.1027  136.2135  154.0534 C.3     1  UNL1        0.0555
     18 C         141.7014  135.2187  155.0030 C.ar    1  UNL1        0.0998
     19 N         141.6023  133.7259  154.8943 N.ar    1  UNL1       -0.1714
     20 N         142.3440  133.1266  156.0523 N.ar    1  UNL1       -0.2372
     21 C         142.5007  131.6621  156.3360 C.3     1  UNL1        0.1548
     22 C         142.9016  134.2490  156.8765 C.ar    1  UNL1        0.1546
     23 CL        143.7137  134.1038  158.1292 Cl      1  UNL1       -0.0603
     24 C         142.5045  135.5420  156.2280 C.ar    1  UNL1        0.1649
     25 C         138.4014  137.8758  165.6521 C.3     1  UNL1        0.1202
     26 C         138.2166  139.1077  166.4878 C.3     1  UNL1        0.2226
     27 O         138.5061  139.0662  167.9590 O.3     1  UNL1       -0.4740
     28 C         139.4833  140.0334  168.5586 C.ar    1  UNL1        0.1387
     29 C         139.1277  140.7802  169.8099 C.ar    1  UNL1        0.0376
     30 C         140.1050  141.7475  170.4095 C.ar    1  UNL1        0.0134
     31 C         141.4378  141.9679  169.7577 C.ar    1  UNL1        0.0686
     32 C         141.7934  141.2212  168.5063 C.ar    1  UNL1        0.0134
     33 C         140.8162  140.2540  167.9068 C.ar    1  UNL1        0.0376
     34 C         142.4150  142.9351  170.3572 C.1     1  UNL1        0.1004
     35 N         143.3923  143.9024  170.9568 N.1     1  UNL1       -0.1908
@<TRIPOS>BOND
     1    17    18    1
     2    18    19   ar
     3    19    20   ar
     4    20    21    1
     5    20    22   ar
     6    22    23    1
     7    22    24   ar
     8    24    14    1
     9    14    15    2
    10    14    16    2
    11    14    12    1
    12    12    11    1
    13    11    10    1
    14    10     1    1
    15     1     2    1
    16     2     3    1
    17     3     4    1
    18     4     5    1
    19     5    25    1
    20    25    26    1
    21    26    27    1
    22    27    28    1
    23    28    29   ar
    24    29    30   ar
    25    30    31   ar
    26    31    34    1
    27    34    35    3
    28    31    32   ar
    29    32    33   ar
    30     5     6    1
    31     6     7    1
    32     7     8    1
    33     7     9    1
    34    24    18   ar
    35     8     1    1
    36     9     3    1
    37    33    28   ar
    38    12    13    1
@<TRIPOS>MOLECULE
*****
 35 38 0 0 0
SMALL
GASTEIGER

@<TRIPOS>ATOM
      1 N         138.4162  139.4095  161.3794 N.3     1  UNL1       -0.2673
      2 C         138.8426  138.1398  162.0546 C.3     1  UNL1        0.1035
      3 C         138.8719  138.0602  163.5522 C.3     1  UNL1        0.1470
      4 C         138.9013  137.9804  165.0499 C.3     1  UNL1        0.1036
      5 N         138.5041  139.1704  165.8721 N.3     1  UNL1       -0.2653
      6 C         138.0776  140.4402  165.1968 C.3     1  UNL1        0.1036
      7 C         138.0483  140.5198  163.6992 C.3     1  UNL1        0.1470
      8 C         138.0190  140.5995  162.2017 C.3     1  UNL1        0.1035
      9 O         138.4748  139.2502  164.3745 O.3     1  UNL1       -0.3530
     10 C         138.3868  139.4892  159.8817 C.3     1  UNL1        0.0913
     11 C         139.5884  139.9854  159.1334 C.3     1  UNL1        0.1087
     12 N         140.9596  139.8107  159.7159 N.3     1  UNL1       -0.1779
     13 H         140.8879  139.0798  160.4237 H       1  UNL1        0.1488
     14 S         141.6535  140.9729  160.3623 S.O2    1  UNL1        0.0637
     15 O         140.7669  141.9206  159.6103 O.2     1  UNL1       -0.1529
     16 O         142.5402  140.0251  161.1144 O.2     1  UNL1       -0.1529
     17 C         144.1699  142.6377  159.1191 C.3     1  UNL1        0.0555
     18 C         143.5041  142.9002  160.4373 C.ar    1  UNL1        0.0998
     19 N         143.8781  143.9741  161.4155 N.ar    1  UNL1       -0.1714
     20 N         142.9525  143.8726  162.5915 N.ar    1  UNL1       -0.2372
     21 C         142.9698  144.7531  163.8058 C.3     1  UNL1        0.1548
     22 C         142.0065  142.7359  162.3401 C.ar    1  UNL1        0.1546
     23 CL        140.9119  142.2803  163.2589 Cl      1  UNL1       -0.0603
     24 C         142.3474  142.1350  161.0087 C.ar    1  UNL1        0.1649
     25 C         138.5334  139.0908  167.3697 C.3     1  UNL1        0.1202
     26 C         139.3459  140.0754  168.1574 C.3     1  UNL1        0.2226
     27 O         140.8086  139.8307  168.3827 O.3     1  UNL1       -0.4740
     28 C         141.7987  140.1599  167.3052 C.ar    1  UNL1        0.1387
     29 C         142.2774  139.0865  166.3731 C.ar    1  UNL1        0.0376
     30 C         143.2676  139.4157  165.2955 C.ar    1  UNL1        0.0134
     31 C         143.7791  140.8183  165.1500 C.ar    1  UNL1        0.0686
     32 C         143.3003  141.8917  166.0820 C.ar    1  UNL1        0.0134
     33 C         142.3102  141.5625  167.1596 C.ar    1  UNL1        0.0376
     34 C         144.7692  141.1475  164.0724 C.1     1  UNL1        0.1004
     35 N         145.7594  141.4767  162.9948 N.1     1  UNL1       -0.1908
@<TRIPOS>BOND
     1    17    18    1
     2    18    19   ar
     3    19    20   ar
     4    20    21    1
     5    20    22   ar
     6    22    23    1
     7    22    24   ar
     8    24    14    1
     9    14    15    2
    10    14    16    2
    11    14    12    1
    12    12    11    1
    13    11    10    1
    14    10     1    1
    15     1     2    1
    16     2     3    1
    17     3     4    1
    18     4     5    1
    19     5    25    1
    20    25    26    1
    21    26    27    1
    22    27    28    1
    23    28    29   ar
    24    29    30   ar
    25    30    31   ar
    26    31    34    1
    27    34    35    3
    28    31    32   ar
    29    32    33   ar
    30     5     6    1
    31     6     7    1
    32     7     8    1
    33     7     9    1
    34    24    18   ar
    35     8     1    1
    36     9     3    1
    37    33    28   ar
    38    12    13    1
@<TRIPOS>MOLECULE
*****
 35 38 0 0 0
SMALL
GASTEIGER

@<TRIPOS>ATOM
      1 N         142.8583  143.4742  161.9311 N.3     1  UNL1       -0.2673
      2 C         143.0199  142.0602  161.4572 C.3     1  UNL1        0.1035
      3 C         141.8569  141.3367  160.8458 C.3     1  UNL1        0.1470
      4 C         140.6938  140.6130  160.2345 C.3     1  UNL1        0.1036
      5 N         139.3692  141.3034  160.0971 N.3     1  UNL1       -0.2653
      6 C         139.2077  142.7174  160.5711 C.3     1  UNL1        0.1036
      7 C         140.3707  143.4410  161.1824 C.3     1  UNL1        0.1470
      8 C         141.5337  144.1645  161.7937 C.3     1  UNL1        0.1035
      9 O         140.5323  142.0270  160.7084 O.3     1  UNL1       -0.3530
     10 C         144.0214  144.1978  162.5425 C.3     1  UNL1        0.0913
     11 C         144.1290  144.3197  164.0336 C.3     1  UNL1        0.1087
     12 N         142.9302  144.0571  164.8961 N.3     1  UNL1       -0.1779
     13 H         142.9045  144.7969  165.5978 H       1  UNL1        0.1488
     14 S         142.8070  142.7566  165.6333 S.O2    1  UNL1        0.0637
     15 O         144.2902  142.5578  165.5304 O.2     1  UNL1       -0.1529
     16 O         141.3238  142.9554  165.7362 O.2     1  UNL1       -0.1529
     17 C         142.3054  139.8274  164.2849 C.3     1  UNL1        0.0555
     18 C         142.4533  140.1097  165.7507 C.ar    1  UNL1        0.0998
     19 N         142.3965  139.0951  166.8540 N.ar    1  UNL1       -0.1714
     20 N         142.5920  139.8144  168.1557 N.ar    1  UNL1       -0.2372
     21 C         142.6072  139.1851  169.5172 C.3     1  UNL1        0.1548
     22 C         142.7696  141.2736  167.8568 C.ar    1  UNL1        0.1546
     23 CL        142.9935  142.3596  168.8670 Cl      1  UNL1       -0.0603
     24 C         142.6838  141.4561  166.3704 C.ar    1  UNL1        0.1649
     25 C         138.2062  140.5798  159.4857 C.3     1  UNL1        0.1202
     26 C         137.3532  139.6814  160.3316 C.3     1  UNL1        0.2226
     27 O         137.9901  138.6102  161.1663 O.3     1  UNL1       -0.4740
     28 C         138.2191  138.8377  162.6311 C.ar    1  UNL1        0.1387
     29 C         137.8978  140.1692  163.2426 C.ar    1  UNL1        0.0376
     30 C         138.1268  140.3966  164.7075 C.ar    1  UNL1        0.0134
     31 C         138.6772  139.2926  165.5608 C.ar    1  UNL1        0.0686
     32 C         138.9986  137.9611  164.9493 C.ar    1  UNL1        0.0134
     33 C         138.7695  137.7337  163.4845 C.ar    1  UNL1        0.0376
     34 C         138.9062  139.5200  167.0257 C.1     1  UNL1        0.1004
     35 N         139.1352  139.7475  168.4906 N.1     1  UNL1       -0.1908
@<TRIPOS>BOND
     1    17    18    1
     2    18    19   ar
     3    19    20   ar
     4    20    21    1
     5    20    22   ar
     6    22    23    1
     7    22    24   ar
     8    24    14    1
     9    14    15    2
    10    14    16    2
    11    14    12    1
    12    12    11    1
    13    11    10    1
    14    10     1    1
    15     1     2    1
    16     2     3    1
    17     3     4    1
    18     4     5    1
    19     5    25    1
    20    25    26    1
    21    26    27    1
    22    27    28    1
    23    28    29   ar
    24    29    30   ar
    25    30    31   ar
    26    31    34    1
    27    34    35    3
    28    31    32   ar
    29    32    33   ar
    30     5     6    1
    31     6     7    1
    32     7     8    1
    33     7     9    1
    34    24    18   ar
    35     8     1    1
    36     9     3    1
    37    33    28   ar
    38    12    13    1
