@<TRIPOS>MOLECULE
*****
 30 32 0 0 0
SMALL
GASTEIGER

@<TRIPOS>ATOM
      1 C         143.3588  140.3588  164.4089 C.3     1  UNL1        0.0051
      2 C         142.4919  140.5056  163.1937 C.3     1  UNL1        0.0217
      3 C         142.4169  141.8231  162.4807 C.3     1  UNL1        0.0967
      4 N         143.2088  142.9939  162.9829 N.am    1  UNL1       -0.2460
      5 C         143.1337  144.3114  162.2698 C.2     1  UNL1        0.4052
      6 O         143.9256  145.4822  162.7721 O.2     1  UNL1       -0.2262
      7 C         144.0756  142.8471  164.1982 C.3     1  UNL1        0.0967
      8 C         144.1507  141.5296  164.9112 C.3     1  UNL1        0.0217
      9 C         143.4339  139.0412  165.1220 C.3     1  UNL1        0.0216
     10 C         142.2673  138.5595  165.9325 C.3     1  UNL1        0.0936
     11 C         140.2519  140.1900  166.1054 C.3     1  UNL1        0.1150
     12 N         141.4508  139.5363  166.7259 N.am    1  UNL1       -0.2745
     13 C         141.8334  139.8593  168.1399 C.2     1  UNL1        0.2719
     14 O         143.0324  139.2055  168.7604 O.2     1  UNL1       -0.2705
     15 C         141.0170  140.8359  168.9333 C.3     1  UNL1        0.2842
     16 C         139.8193  140.5060  169.7739 C.2     1  UNL1        0.1183
     17 N         139.3170  141.7802  170.3855 N.am    1  UNL1       -0.1416
     18 C         140.2045  142.8977  169.9230 C.2     1  UNL1        0.4260
     19 O         140.0656  144.3447  170.2930 O.2     1  UNL1       -0.2242
     20 O         141.2551  142.3140  169.0255 O.3     1  UNL1       -0.4215
     21 O         142.2668  144.4582  161.0546 O.3     1  UNL1       -0.4295
     22 C         140.8931  145.0475  161.1799 C.3     1  UNL1        0.2368
     23 C         139.9079  144.4551  162.1434 C.ar    1  UNL1        0.0230
     24 C         139.6847  145.0999  163.4792 C.ar    1  UNL1        0.0108
     25 C         138.6995  144.5075  164.4427 C.ar    1  UNL1        0.0583
     26 CL        138.4763  145.1522  165.7786 Cl      1  UNL1       -0.0822
     27 C         137.9374  143.2702  164.0704 C.ar    1  UNL1        0.0228
     28 C         138.1606  142.6255  162.7345 C.ar    1  UNL1        0.0583
     29 CL        137.3986  141.3883  162.3622 Cl      1  UNL1       -0.0822
     30 C         139.1459  143.2180  161.7710 C.ar    1  UNL1        0.0108
@<TRIPOS>BOND
     1    11    12    1
     2    12    10    1
     3    10     9    1
     4     9     1    1
     5     1     2    1
     6     2     3    1
     7     3     4    1
     8     4     5   am
     9     5     6    2
    10     5    21    1
    11    21    22    1
    12    22    23    1
    13    23    24   ar
    14    24    25   ar
    15    25    26    1
    16    25    27   ar
    17    27    28   ar
    18    28    29    1
    19    28    30   ar
    20     4     7    1
    21     7     8    1
    22    12    13   am
    23    13    14    2
    24    13    15    1
    25    15    16    1
    26    16    17    2
    27    17    18    1
    28    18    19    2
    29    18    20    1
    30     8     1    1
    31    20    15    1
    32    30    23   ar
@<TRIPOS>MOLECULE
*****
 30 32 0 0 0
SMALL
GASTEIGER

@<TRIPOS>ATOM
      1 C         144.3766  141.4562  164.7233 C.3     1  UNL1        0.0051
      2 C         143.7122  140.1372  164.9854 C.3     1  UNL1        0.0217
      3 C         142.6309  140.0346  166.0199 C.3     1  UNL1        0.0967
      4 N         142.2139  141.2510  166.7922 N.am    1  UNL1       -0.2460
      5 C         141.1325  141.1483  167.8267 C.2     1  UNL1        0.4052
      6 O         140.7155  142.3647  168.5990 O.2     1  UNL1       -0.2262
      7 C         142.8783  142.5700  166.5301 C.3     1  UNL1        0.0967
      8 C         143.9596  142.6726  165.4956 C.3     1  UNL1        0.0217
      9 C         145.4580  141.5589  163.6888 C.3     1  UNL1        0.0216
     10 C         145.1164  141.9579  162.2838 C.3     1  UNL1        0.0936
     11 C         142.7205  141.3695  161.4692 C.3     1  UNL1        0.1150
     12 N         143.7188  142.3835  161.9438 N.am    1  UNL1       -0.2745
     13 C         143.3195  143.8231  162.0783 C.2     1  UNL1        0.2719
     14 O         144.3178  144.8371  162.5529 O.2     1  UNL1       -0.2705
     15 C         141.9219  144.2487  161.7382 C.3     1  UNL1        0.2842
     16 C         141.4389  144.6923  160.3892 C.2     1  UNL1        0.1183
     17 N         139.9805  145.0232  160.5047 N.am    1  UNL1       -0.1416
     18 C         139.5621  144.7841  161.9252 C.2     1  UNL1        0.4260
     19 O         138.1855  144.9879  162.4851 O.2     1  UNL1       -0.2242
     20 O         140.7620  144.3054  162.6876 O.3     1  UNL1       -0.4215
     21 O         140.4681  139.8293  168.0888 O.3     1  UNL1       -0.4295
     22 C         139.1298  139.5296  167.4811 C.3     1  UNL1        0.2368
     23 C         138.9605  139.5536  165.9909 C.ar    1  UNL1        0.0230
     24 C         138.2135  140.6791  165.3389 C.ar    1  UNL1        0.0108
     25 C         138.0442  140.7031  163.8487 C.ar    1  UNL1        0.0583
     26 CL        137.2972  141.8286  163.1968 Cl      1  UNL1       -0.0822
     27 C         138.6220  139.6014  163.0105 C.ar    1  UNL1        0.0228
     28 C         139.3690  138.4759  163.6624 C.ar    1  UNL1        0.0583
     29 CL        139.9467  137.3742  162.8242 Cl      1  UNL1       -0.0822
     30 C         139.5383  138.4520  165.1527 C.ar    1  UNL1        0.0108
@<TRIPOS>BOND
     1    11    12    1
     2    12    10    1
     3    10     9    1
     4     9     1    1
     5     1     2    1
     6     2     3    1
     7     3     4    1
     8     4     5   am
     9     5     6    2
    10     5    21    1
    11    21    22    1
    12    22    23    1
    13    23    24   ar
    14    24    25   ar
    15    25    26    1
    16    25    27   ar
    17    27    28   ar
    18    28    29    1
    19    28    30   ar
    20     4     7    1
    21     7     8    1
    22    12    13   am
    23    13    14    2
    24    13    15    1
    25    15    16    1
    26    16    17    2
    27    17    18    1
    28    18    19    2
    29    18    20    1
    30     8     1    1
    31    20    15    1
    32    30    23   ar
@<TRIPOS>MOLECULE
*****
 30 32 0 0 0
SMALL
GASTEIGER

@<TRIPOS>ATOM
      1 C         143.6466  143.2832  164.3193 C.3     1  UNL1        0.0051
      2 C         142.4465  142.5855  164.8875 C.3     1  UNL1        0.0217
      3 C         141.0675  143.0657  164.5446 C.3     1  UNL1        0.0967
      4 N         140.8886  144.2438  163.6334 N.am    1  UNL1       -0.2460
      5 C         139.5095  144.7240  163.2904 C.2     1  UNL1        0.4052
      6 O         139.3306  145.9021  162.3793 O.2     1  UNL1       -0.2262
      7 C         142.0887  144.9415  163.0652 C.3     1  UNL1        0.0967
      8 C         143.4676  144.4613  163.4081 C.3     1  UNL1        0.0217
      9 C         145.0257  142.8029  164.6622 C.3     1  UNL1        0.0216
     10 C         145.6865  141.7546  163.8171 C.3     1  UNL1        0.0936
     11 C         144.4097  139.4972  163.6628 C.3     1  UNL1        0.1150
     12 N         144.8507  140.7857  163.0343 N.am    1  UNL1       -0.2745
     13 C         144.4561  141.1054  161.6229 C.2     1  UNL1        0.2719
     14 O         144.8972  142.3940  160.9943 O.2     1  UNL1       -0.2705
     15 C         143.6204  140.1366  160.8400 C.3     1  UNL1        0.2842
     16 C         142.1317  139.9792  160.9346 C.2     1  UNL1        0.1183
     17 N         141.7178  138.9004  159.9782 N.am    1  UNL1       -0.1416
     18 C         142.9509  138.3909  159.2924 C.2     1  UNL1        0.4260
     19 O         142.9995  137.3077  158.2560 O.2     1  UNL1       -0.2242
     20 O         144.1267  139.1549  159.8251 O.3     1  UNL1       -0.4215
     21 O         138.3094  144.0263  163.8587 O.3     1  UNL1       -0.4295
     22 C         137.6602  142.9095  163.0961 C.3     1  UNL1        0.2368
     23 C         137.9741  141.4839  163.4413 C.ar    1  UNL1        0.0230
     24 C         138.1585  140.4712  162.3502 C.ar    1  UNL1        0.0108
     25 C         138.4724  139.0457  162.6954 C.ar    1  UNL1        0.0583
     26 CL        138.6568  138.0329  161.6044 Cl      1  UNL1       -0.0822
     27 C         138.6020  138.6328  164.1317 C.ar    1  UNL1        0.0228
     28 C         138.4176  139.6455  165.2227 C.ar    1  UNL1        0.0583
     29 CL        138.5471  139.2327  166.6589 Cl      1  UNL1       -0.0822
     30 C         138.1037  141.0711  164.8775 C.ar    1  UNL1        0.0108
@<TRIPOS>BOND
     1    11    12    1
     2    12    10    1
     3    10     9    1
     4     9     1    1
     5     1     2    1
     6     2     3    1
     7     3     4    1
     8     4     5   am
     9     5     6    2
    10     5    21    1
    11    21    22    1
    12    22    23    1
    13    23    24   ar
    14    24    25   ar
    15    25    26    1
    16    25    27   ar
    17    27    28   ar
    18    28    29    1
    19    28    30   ar
    20     4     7    1
    21     7     8    1
    22    12    13   am
    23    13    14    2
    24    13    15    1
    25    15    16    1
    26    16    17    2
    27    17    18    1
    28    18    19    2
    29    18    20    1
    30     8     1    1
    31    20    15    1
    32    30    23   ar
@<TRIPOS>MOLECULE
*****
 30 32 0 0 0
SMALL
GASTEIGER

@<TRIPOS>ATOM
      1 C         144.1923  139.6564  163.9625 C.3     1  UNL1        0.0051
      2 C         143.4735  139.3569  165.2446 C.3     1  UNL1        0.0217
      3 C         142.1329  138.6848  165.2134 C.3     1  UNL1        0.0967
      4 N         141.5111  138.3122  163.9002 N.am    1  UNL1       -0.2460
      5 C         140.1704  137.6400  163.8691 C.2     1  UNL1        0.4052
      6 O         139.5485  137.2674  162.5559 O.2     1  UNL1       -0.2262
      7 C         142.2298  138.6116  162.6182 C.3     1  UNL1        0.0967
      8 C         143.5704  139.2838  162.6494 C.3     1  UNL1        0.0217
      9 C         145.5329  140.3285  163.9937 C.3     1  UNL1        0.0216
     10 C         145.6255  141.8223  163.8938 C.3     1  UNL1        0.0936
     11 C         144.6301  142.8606  161.7302 C.3     1  UNL1        0.1150
     12 N         144.5415  142.5965  163.2041 N.am    1  UNL1       -0.2745
     13 C         143.3690  143.1065  163.9883 C.2     1  UNL1        0.2719
     14 O         143.2804  142.8424  165.4622 O.2     1  UNL1       -0.2705
     15 C         142.2850  143.8807  163.2986 C.3     1  UNL1        0.2842
     16 C         141.9438  145.3221  163.5353 C.2     1  UNL1        0.1183
     17 N         140.7998  145.6817  162.6342 N.am    1  UNL1       -0.1416
     18 C         140.4341  144.4625  161.8405 C.2     1  UNL1        0.4260
     19 O         139.3421  144.3722  160.8160 O.2     1  UNL1       -0.2242
     20 O         141.3520  143.3495  162.2512 O.3     1  UNL1       -0.4215
     21 O         139.4516  137.3406  165.1512 O.3     1  UNL1       -0.4295
     22 C         138.4381  138.3082  165.6865 C.3     1  UNL1        0.2368
     23 C         138.6311  139.7825  165.4886 C.ar    1  UNL1        0.0230
     24 C         139.4853  140.5620  166.4439 C.ar    1  UNL1        0.0108
     25 C         139.6782  142.0363  166.2459 C.ar    1  UNL1        0.0583
     26 CL        140.5324  142.8159  167.2012 Cl      1  UNL1       -0.0822
     27 C         139.0169  142.7311  165.0926 C.ar    1  UNL1        0.0228
     28 C         138.1627  141.9515  164.1373 C.ar    1  UNL1        0.0583
     29 CL        137.5015  142.6462  162.9840 Cl      1  UNL1       -0.0822
     30 C         137.9698  140.4772  164.3353 C.ar    1  UNL1        0.0108
@<TRIPOS>BOND
     1    11    12    1
     2    12    10    1
     3    10     9    1
     4     9     1    1
     5     1     2    1
     6     2     3    1
     7     3     4    1
     8     4     5   am
     9     5     6    2
    10     5    21    1
    11    21    22    1
    12    22    23    1
    13    23    24   ar
    14    24    25   ar
    15    25    26    1
    16    25    27   ar
    17    27    28   ar
    18    28    29    1
    19    28    30   ar
    20     4     7    1
    21     7     8    1
    22    12    13   am
    23    13    14    2
    24    13    15    1
    25    15    16    1
    26    16    17    2
    27    17    18    1
    28    18    19    2
    29    18    20    1
    30     8     1    1
    31    20    15    1
    32    30    23   ar
@<TRIPOS>MOLECULE
*****
 30 32 0 0 0
SMALL
GASTEIGER

@<TRIPOS>ATOM
      1 C         139.0666  138.7116  163.6105 C.3     1  UNL1        0.0051
      2 C         138.7617  139.5356  164.8262 C.3     1  UNL1        0.0217
      3 C         138.3548  140.9715  164.6762 C.3     1  UNL1        0.0967
      4 N         138.2529  141.5835  163.3105 N.am    1  UNL1       -0.2460
      5 C         137.8460  143.0195  163.1606 C.2     1  UNL1        0.4052
      6 O         137.7440  143.6314  161.7949 O.2     1  UNL1       -0.2262
      7 C         138.5578  140.7595  162.0948 C.3     1  UNL1        0.0967
      8 C         138.9646  139.3235  162.2448 C.3     1  UNL1        0.0217
      9 C         139.4735  137.2756  163.7604 C.3     1  UNL1        0.0216
     10 C         140.9263  136.9027  163.7497 C.3     1  UNL1        0.0936
     11 C         142.2607  137.8943  161.7531 C.3     1  UNL1        0.1150
     12 N         141.9446  137.8680  163.2191 N.am    1  UNL1       -0.2745
     13 C         142.6466  138.8071  164.1547 C.2     1  UNL1        0.2719
     14 O         142.3304  138.7808  165.6209 O.2     1  UNL1       -0.2705
     15 C         143.6648  139.7724  163.6243 C.3     1  UNL1        0.2842
     16 C         145.0474  139.9822  164.1669 C.2     1  UNL1        0.1183
     17 N         145.7163  141.0369  163.3361 N.am    1  UNL1       -0.1416
     18 C         144.7470  141.4789  162.2800 C.2     1  UNL1        0.4260
     19 O         145.0010  142.5197  161.2301 O.2     1  UNL1       -0.2242
     20 O         143.4791  140.6974  162.4582 O.3     1  UNL1       -0.4215
     21 O         137.5411  143.8434  164.3763 O.3     1  UNL1       -0.4295
     22 C         138.6120  144.6923  164.9950 C.3     1  UNL1        0.2368
     23 C         140.0374  144.2254  164.9866 C.ar    1  UNL1        0.0230
     24 C         140.4921  143.1864  165.9683 C.ar    1  UNL1        0.0108
     25 C         141.9175  142.7195  165.9600 C.ar    1  UNL1        0.0583
     26 CL        142.3722  141.6805  166.9417 Cl      1  UNL1       -0.0822
     27 C         142.8884  143.2916  164.9699 C.ar    1  UNL1        0.0228
     28 C         142.4337  144.3306  163.9882 C.ar    1  UNL1        0.0583
     29 CL        143.4045  144.9028  162.9982 Cl      1  UNL1       -0.0822
     30 C         141.0082  144.7975  163.9966 C.ar    1  UNL1        0.0108
@<TRIPOS>BOND
     1    11    12    1
     2    12    10    1
     3    10     9    1
     4     9     1    1
     5     1     2    1
     6     2     3    1
     7     3     4    1
     8     4     5   am
     9     5     6    2
    10     5    21    1
    11    21    22    1
    12    22    23    1
    13    23    24   ar
    14    24    25   ar
    15    25    26    1
    16    25    27   ar
    17    27    28   ar
    18    28    29    1
    19    28    30   ar
    20     4     7    1
    21     7     8    1
    22    12    13   am
    23    13    14    2
    24    13    15    1
    25    15    16    1
    26    16    17    2
    27    17    18    1
    28    18    19    2
    29    18    20    1
    30     8     1    1
    31    20    15    1
    32    30    23   ar
@<TRIPOS>MOLECULE
*****
 30 32 0 0 0
SMALL
GASTEIGER

@<TRIPOS>ATOM
      1 C         143.4091  143.4812  164.3092 C.3     1  UNL1        0.0051
      2 C         142.2596  142.7529  164.9403 C.3     1  UNL1        0.0217
      3 C         140.8513  143.1003  164.5585 C.3     1  UNL1        0.0967
      4 N         140.5924  144.1760  163.5457 N.am    1  UNL1       -0.2460
      5 C         139.1839  144.5233  163.1639 C.2     1  UNL1        0.4052
      6 O         138.9250  145.5991  162.1511 O.2     1  UNL1       -0.2262
      7 C         141.7418  144.9043  162.9146 C.3     1  UNL1        0.0967
      8 C         143.1502  144.5569  163.2964 C.3     1  UNL1        0.0217
      9 C         144.8175  143.1338  164.6910 C.3     1  UNL1        0.0216
     10 C         145.5030  141.9658  164.0461 C.3     1  UNL1        0.0936
     11 C         144.8490  141.8263  161.5355 C.3     1  UNL1        0.1150
     12 N         144.8393  141.2375  162.9151 N.am    1  UNL1       -0.2745
     13 C         144.1659  139.9204  163.1638 C.2     1  UNL1        0.2719
     14 O         144.1562  139.3317  164.5434 O.2     1  UNL1       -0.2705
     15 C         143.5022  139.1921  162.0328 C.3     1  UNL1        0.2842
     16 C         143.9911  137.9277  161.3907 C.2     1  UNL1        0.1183
     17 N         143.0241  137.5545  160.3065 N.am    1  UNL1       -0.1416
     18 C         141.9375  138.5882  160.2785 C.2     1  UNL1        0.4260
     19 O         140.7619  138.6066  159.3471 O.2     1  UNL1       -0.2242
     20 O         142.2330  139.6003  161.3454 O.3     1  UNL1       -0.4215
     21 O         138.0345  143.7950  163.7950 O.3     1  UNL1       -0.4295
     22 C         137.4634  142.5769  163.1316 C.3     1  UNL1        0.2368
     23 C         137.8863  141.2100  163.5818 C.ar    1  UNL1        0.0230
     24 C         138.0336  140.9144  165.0449 C.ar    1  UNL1        0.0108
     25 C         138.4565  139.5475  165.4951 C.ar    1  UNL1        0.0583
     26 CL        138.6039  139.2519  166.9583 Cl      1  UNL1       -0.0822
     27 C         138.7321  138.4761  164.4820 C.ar    1  UNL1        0.0228
     28 C         138.5847  138.7716  163.0188 C.ar    1  UNL1        0.0583
     29 CL        138.8603  137.7003  162.0058 Cl      1  UNL1       -0.0822
     30 C         138.1618  140.1386  162.5687 C.ar    1  UNL1        0.0108
@<TRIPOS>BOND
     1    11    12    1
     2    12    10    1
     3    10     9    1
     4     9     1    1
     5     1     2    1
     6     2     3    1
     7     3     4    1
     8     4     5   am
     9     5     6    2
    10     5    21    1
    11    21    22    1
    12    22    23    1
    13    23    24   ar
    14    24    25   ar
    15    25    26    1
    16    25    27   ar
    17    27    28   ar
    18    28    29    1
    19    28    30   ar
    20     4     7    1
    21     7     8    1
    22    12    13   am
    23    13    14    2
    24    13    15    1
    25    15    16    1
    26    16    17    2
    27    17    18    1
    28    18    19    2
    29    18    20    1
    30     8     1    1
    31    20    15    1
    32    30    23   ar
@<TRIPOS>MOLECULE
*****
 30 32 0 0 0
SMALL
GASTEIGER

@<TRIPOS>ATOM
      1 C         141.2778  139.9212  160.1583 C.3     1  UNL1        0.0051
      2 C         141.1051  141.4103  160.2114 C.3     1  UNL1        0.0217
      3 C         142.1832  142.2696  160.8025 C.3     1  UNL1        0.0967
      4 N         143.4339  141.6399  161.3403 N.am    1  UNL1       -0.2460
      5 C         144.5119  142.4993  161.9313 C.2     1  UNL1        0.4052
      6 O         145.7626  141.8696  162.4692 O.2     1  UNL1       -0.2262
      7 C         143.6065  140.1508  161.2871 C.3     1  UNL1        0.0967
      8 C         142.5285  139.2915  160.6961 C.3     1  UNL1        0.0217
      9 C         140.1997  139.0618  159.5672 C.3     1  UNL1        0.0216
     10 C         139.4288  138.1182  160.4420 C.3     1  UNL1        0.0936
     11 C         137.8805  139.5395  161.9693 C.3     1  UNL1        0.1150
     12 N         138.9963  138.5494  161.8120 N.am    1  UNL1       -0.2745
     13 C         139.6795  137.9905  163.0248 C.2     1  UNL1        0.2719
     14 O         140.7954  137.0004  162.8675 O.2     1  UNL1       -0.2705
     15 C         139.2470  138.4217  164.3948 C.3     1  UNL1        0.2842
     16 C         139.6986  139.6585  165.1135 C.2     1  UNL1        0.1183
     17 N         139.0177  139.6930  166.4496 N.am    1  UNL1       -0.1416
     18 C         138.1451  138.4775  166.5566 C.2     1  UNL1        0.4260
     19 O         137.2823  138.1119  167.7279 O.2     1  UNL1       -0.2242
     20 O         138.2869  137.6919  165.2867 O.3     1  UNL1       -0.4215
     21 O         144.3393  143.9884  161.9845 O.3     1  UNL1       -0.4295
     22 C         143.9951  144.6577  163.2821 C.3     1  UNL1        0.2368
     23 C         142.8355  144.1647  164.0959 C.ar    1  UNL1        0.0230
     24 C         141.4637  144.7249  163.8628 C.ar    1  UNL1        0.0108
     25 C         140.3041  144.2319  164.6766 C.ar    1  UNL1        0.0583
     26 CL        138.9323  144.7921  164.4436 Cl      1  UNL1       -0.0822
     27 C         140.5162  143.1787  165.7234 C.ar    1  UNL1        0.0228
     28 C         141.8880  142.6185  165.9564 C.ar    1  UNL1        0.0583
     29 CL        142.1002  141.5653  167.0032 Cl      1  UNL1       -0.0822
     30 C         143.0477  143.1115  165.1426 C.ar    1  UNL1        0.0108
@<TRIPOS>BOND
     1    11    12    1
     2    12    10    1
     3    10     9    1
     4     9     1    1
     5     1     2    1
     6     2     3    1
     7     3     4    1
     8     4     5   am
     9     5     6    2
    10     5    21    1
    11    21    22    1
    12    22    23    1
    13    23    24   ar
    14    24    25   ar
    15    25    26    1
    16    25    27   ar
    17    27    28   ar
    18    28    29    1
    19    28    30   ar
    20     4     7    1
    21     7     8    1
    22    12    13   am
    23    13    14    2
    24    13    15    1
    25    15    16    1
    26    16    17    2
    27    17    18    1
    28    18    19    2
    29    18    20    1
    30     8     1    1
    31    20    15    1
    32    30    23   ar
@<TRIPOS>MOLECULE
*****
 30 32 0 0 0
SMALL
GASTEIGER

@<TRIPOS>ATOM
      1 C         138.8787  139.5966  162.9561 C.3     1  UNL1        0.0051
      2 C         140.0175  140.2961  162.2750 C.3     1  UNL1        0.0217
      3 C         139.9560  141.7764  162.0408 C.3     1  UNL1        0.0967
      4 N         138.7557  142.5572  162.4876 N.am    1  UNL1       -0.2460
      5 C         138.6943  144.0376  162.2533 C.2     1  UNL1        0.4052
      6 O         137.4940  144.8184  162.7002 O.2     1  UNL1       -0.2262
      7 C         137.6170  141.8578  163.1687 C.3     1  UNL1        0.0967
      8 C         137.6784  140.3775  163.4030 C.3     1  UNL1        0.0217
      9 C         138.9401  138.1163  163.1904 C.3     1  UNL1        0.0216
     10 C         139.2189  137.5855  164.5653 C.3     1  UNL1        0.0936
     11 C         141.2448  138.8196  165.6251 C.3     1  UNL1        0.1150
     12 N         139.7809  138.4924  165.6197 N.am    1  UNL1       -0.2745
     13 C         138.8790  139.0721  166.6688 C.2     1  UNL1        0.2719
     14 O         137.4151  138.7449  166.6634 O.2     1  UNL1       -0.2705
     15 C         139.4409  139.9790  167.7232 C.3     1  UNL1        0.2842
     16 C         140.0418  141.3339  167.4920 C.2     1  UNL1        0.1183
     17 N         140.4729  141.8825  168.8198 N.am    1  UNL1       -0.1416
     18 C         140.1385  140.8667  169.8716 C.2     1  UNL1        0.4260
     19 O         140.3966  141.0033  171.3430 O.2     1  UNL1       -0.2242
     20 O         139.5007  139.6903  169.1939 O.3     1  UNL1       -0.4215
     21 O         139.8330  144.7370  161.5722 O.3     1  UNL1       -0.4295
     22 C         140.9293  145.3554  162.3883 C.3     1  UNL1        0.2368
     23 C         142.2019  144.5993  162.6302 C.ar    1  UNL1        0.0230
     24 C         142.8788  143.8880  161.4963 C.ar    1  UNL1        0.0108
     25 C         144.1515  143.1319  161.7382 C.ar    1  UNL1        0.0583
     26 CL        144.8284  142.4205  160.6043 Cl      1  UNL1       -0.0822
     27 C         144.7474  143.0872  163.1141 C.ar    1  UNL1        0.0228
     28 C         144.0705  143.7985  164.2480 C.ar    1  UNL1        0.0583
     29 CL        144.6663  143.7538  165.6239 Cl      1  UNL1       -0.0822
     30 C         142.7978  144.5546  164.0061 C.ar    1  UNL1        0.0108
@<TRIPOS>BOND
     1    11    12    1
     2    12    10    1
     3    10     9    1
     4     9     1    1
     5     1     2    1
     6     2     3    1
     7     3     4    1
     8     4     5   am
     9     5     6    2
    10     5    21    1
    11    21    22    1
    12    22    23    1
    13    23    24   ar
    14    24    25   ar
    15    25    26    1
    16    25    27   ar
    17    27    28   ar
    18    28    29    1
    19    28    30   ar
    20     4     7    1
    21     7     8    1
    22    12    13   am
    23    13    14    2
    24    13    15    1
    25    15    16    1
    26    16    17    2
    27    17    18    1
    28    18    19    2
    29    18    20    1
    30     8     1    1
    31    20    15    1
    32    30    23   ar
@<TRIPOS>MOLECULE
*****
 30 32 0 0 0
SMALL
GASTEIGER

@<TRIPOS>ATOM
      1 C         143.9846  139.0654  162.5286 C.3     1  UNL1        0.0051
      2 C         143.4279  138.7174  163.8773 C.3     1  UNL1        0.0217
      3 C         143.3186  139.7720  164.9384 C.3     1  UNL1        0.0967
      4 N         143.7660  141.1745  164.6508 N.am    1  UNL1       -0.2460
      5 C         143.6566  142.2291  165.7119 C.2     1  UNL1        0.4052
      6 O         144.1040  143.6317  165.4244 O.2     1  UNL1       -0.2262
      7 C         144.3227  141.5225  163.3021 C.3     1  UNL1        0.0967
      8 C         144.4320  140.4680  162.2411 C.3     1  UNL1        0.0217
      9 C         144.0940  138.0109  161.4675 C.3     1  UNL1        0.0216
     10 C         142.8991  137.6626  160.6303 C.3     1  UNL1        0.0936
     11 C         141.7968  139.7357  159.5178 C.3     1  UNL1        0.1150
     12 N         141.7523  138.6236  160.5234 N.am    1  UNL1       -0.2745
     13 C         140.5610  138.4725  161.4223 C.2     1  UNL1        0.2719
     14 O         140.5164  137.3604  162.4279 O.2     1  UNL1       -0.2705
     15 C         139.4142  139.4335  161.3155 C.3     1  UNL1        0.2842
     16 C         137.9801  139.0707  161.0667 C.2     1  UNL1        0.1183
     17 N         137.1797  140.3390  161.0362 N.am    1  UNL1       -0.1416
     18 C         138.1192  141.4856  161.2660 C.2     1  UNL1        0.4260
     19 O         137.7436  142.9370  161.3147 O.2     1  UNL1       -0.2242
     20 O         139.5001  140.9259  161.4386 O.3     1  UNL1       -0.4215
     21 O         143.0999  141.8811  167.0606 O.3     1  UNL1       -0.4295
     22 C         141.7473  142.3867  167.4669 C.3     1  UNL1        0.2368
     23 C         140.5741  142.2106  166.5491 C.ar    1  UNL1        0.0230
     24 C         139.9337  143.4082  165.9121 C.ar    1  UNL1        0.0108
     25 C         138.7605  143.2321  164.9943 C.ar    1  UNL1        0.0583
     26 CL        138.1201  144.4297  164.3574 Cl      1  UNL1       -0.0822
     27 C         138.2275  141.8583  164.7134 C.ar    1  UNL1        0.0228
     28 C         138.8678  140.6607  165.3504 C.ar    1  UNL1        0.0583
     29 CL        138.3349  139.2870  165.0696 Cl      1  UNL1       -0.0822
     30 C         140.0411  140.8369  166.2682 C.ar    1  UNL1        0.0108
@<TRIPOS>BOND
     1    11    12    1
     2    12    10    1
     3    10     9    1
     4     9     1    1
     5     1     2    1
     6     2     3    1
     7     3     4    1
     8     4     5   am
     9     5     6    2
    10     5    21    1
    11    21    22    1
    12    22    23    1
    13    23    24   ar
    14    24    25   ar
    15    25    26    1
    16    25    27   ar
    17    27    28   ar
    18    28    29    1
    19    28    30   ar
    20     4     7    1
    21     7     8    1
    22    12    13   am
    23    13    14    2
    24    13    15    1
    25    15    16    1
    26    16    17    2
    27    17    18    1
    28    18    19    2
    29    18    20    1
    30     8     1    1
    31    20    15    1
    32    30    23   ar
