@<TRIPOS>MOLECULE
*****
 31 33 0 0 0
SMALL
GASTEIGER

@<TRIPOS>ATOM
      1 C         138.9734  141.0812  163.4108 C.ar    1  UNL1        0.1042
      2 C         139.2084  142.1426  162.3773 C.ar    1  UNL1        0.0335
      3 C         139.5818  143.5323  162.8008 C.ar    1  UNL1        0.1261
      4 C         139.7202  143.8605  164.2579 C.ar    1  UNL1        0.0234
      5 C         139.4851  142.7992  165.2914 C.ar    1  UNL1        0.0396
      6 C         139.1117  141.4095  164.8678 C.ar    1  UNL1        0.1549
      7 S         139.8169  144.5937  161.7673 S.O2    1  UNL1        0.0747
      8 O         140.7152  145.3236  162.7212 O.2     1  UNL1       -0.1499
      9 O         138.9186  143.8637  160.8133 O.2     1  UNL1       -0.1499
     10 N         140.0520  145.6551  160.7338 N.pl3   1  UNL1       -0.1989
     11 H         139.7251  146.5712  160.8858 H       1  UNL1        0.1753
     12 C         140.7851  145.3206  159.4685 C.ar    1  UNL1        0.1472
     13 C         140.2805  145.8319  158.1518 C.ar    1  UNL1        0.0379
     14 C         141.0136  145.4975  156.8866 C.ar    1  UNL1        0.0342
     15 C         142.2514  144.6518  156.9383 C.ar    1  UNL1        0.1593
     16 F         142.9846  144.3174  155.6730 F       1  UNL1       -0.2025
     17 C         142.7561  144.1406  158.2550 C.ar    1  UNL1        0.1299
     18 N         142.0230  144.4750  159.5202 N.ar    1  UNL1       -0.2256
     19 N         138.2266  138.3019  162.5637 N.1     1  UNL1       -0.1907
     20 C         138.6000  139.6915  162.9872 C.1     1  UNL1        0.1035
     21 O         138.8767  140.3481  165.9014 O.3     1  UNL1       -0.4528
     22 C         139.8873  140.1207  166.9862 C.ar    1  UNL1        0.1462
     23 C         141.3141  139.8226  166.6316 C.ar    1  UNL1        0.0373
     24 C         142.3247  139.5952  167.7164 C.ar    1  UNL1        0.0021
     25 C         141.9087  139.6658  169.1558 C.ar    1  UNL1        0.0177
     26 C         140.4821  139.9639  169.5105 C.ar    1  UNL1        0.0591
     27 CL        140.0661  140.0346  170.9499 Cl      1  UNL1       -0.0824
     28 C         139.4714  140.1913  168.4256 C.ar    1  UNL1        0.0486
     29 C         142.9194  139.4384  170.2406 C.3     1  UNL1        0.1644
     30 O         143.2909  138.0407  170.6386 O.3     1  UNL1       -0.3772
     31 H         142.5228  137.6033  171.0381 H       1  UNL1        0.2109
@<TRIPOS>BOND
     1    19    20    3
     2    20     1    1
     3     1     2   ar
     4     2     3   ar
     5     3     7    1
     6     7     8    2
     7     7     9    2
     8     7    10    1
     9    10    12    1
    10    12    13   ar
    11    13    14   ar
    12    14    15   ar
    13    15    16    1
    14    15    17   ar
    15    17    18   ar
    16     3     4   ar
    17     4     5   ar
    18     5     6   ar
    19     6    21    1
    20    21    22    1
    21    22    23   ar
    22    23    24   ar
    23    24    25   ar
    24    25    29    1
    25    29    30    1
    26    25    26   ar
    27    26    27    1
    28    26    28   ar
    29     6     1   ar
    30    28    22   ar
    31    18    12   ar
    32    10    11    1
    33    30    31    1
@<TRIPOS>MOLECULE
*****
 31 33 0 0 0
SMALL
GASTEIGER

@<TRIPOS>ATOM
      1 C         141.5069  140.5782  162.9472 C.ar    1  UNL1        0.1042
      2 C         141.3811  141.7436  162.0113 C.ar    1  UNL1        0.0335
      3 C         141.7900  143.1147  162.4617 C.ar    1  UNL1        0.1261
      4 C         142.3248  143.3204  163.8479 C.ar    1  UNL1        0.0234
      5 C         142.4505  142.1549  164.7838 C.ar    1  UNL1        0.0396
      6 C         142.0416  140.7838  164.3334 C.ar    1  UNL1        0.1549
      7 S         141.6642  144.2802  161.5257 S.O2    1  UNL1        0.0747
      8 O         143.0082  143.9574  160.9432 O.2     1  UNL1       -0.1499
      9 O         140.3202  144.6030  162.1083 O.2     1  UNL1       -0.1499
     10 N         141.5385  145.4456  160.5898 N.pl3   1  UNL1       -0.1989
     11 H         141.6040  146.3647  160.9365 H       1  UNL1        0.1753
     12 C         141.3128  145.2107  159.1256 C.ar    1  UNL1        0.1472
     13 C         140.1735  144.3472  158.6713 C.ar    1  UNL1        0.0379
     14 C         139.9479  144.1124  157.2072 C.ar    1  UNL1        0.0342
     15 C         140.8616  144.7409  156.1972 C.ar    1  UNL1        0.1593
     16 F         140.6359  144.5060  154.7329 F       1  UNL1       -0.2025
     17 C         142.0009  145.6044  156.6514 C.ar    1  UNL1        0.1299
     18 N         142.2265  145.8392  158.1156 N.ar    1  UNL1       -0.2256
     19 N         140.6890  137.8360  162.0464 N.1     1  UNL1       -0.1907
     20 C         141.0979  139.2071  162.4968 C.1     1  UNL1        0.1035
     21 O         142.1674  139.6184  165.2693 O.3     1  UNL1       -0.4528
     22 C         141.6479  139.7238  166.6725 C.ar    1  UNL1        0.1462
     23 C         140.1953  140.0089  166.9151 C.ar    1  UNL1        0.0373
     24 C         139.6758  140.1144  168.3183 C.ar    1  UNL1        0.0021
     25 C         140.6089  139.9348  169.4790 C.ar    1  UNL1        0.0177
     26 C         142.0614  139.6497  169.2365 C.ar    1  UNL1        0.0591
     27 CL        142.9945  139.4701  170.3971 Cl      1  UNL1       -0.0824
     28 C         142.5810  139.5442  167.8332 C.ar    1  UNL1        0.0486
     29 C         140.0894  140.0403  170.8821 C.3     1  UNL1        0.1644
     30 O         140.5110  141.1859  171.7539 O.3     1  UNL1       -0.3772
     31 H         141.4612  141.1202  171.9371 H       1  UNL1        0.2109
@<TRIPOS>BOND
     1    19    20    3
     2    20     1    1
     3     1     2   ar
     4     2     3   ar
     5     3     7    1
     6     7     8    2
     7     7     9    2
     8     7    10    1
     9    10    12    1
    10    12    13   ar
    11    13    14   ar
    12    14    15   ar
    13    15    16    1
    14    15    17   ar
    15    17    18   ar
    16     3     4   ar
    17     4     5   ar
    18     5     6   ar
    19     6    21    1
    20    21    22    1
    21    22    23   ar
    22    23    24   ar
    23    24    25   ar
    24    25    29    1
    25    29    30    1
    26    25    26   ar
    27    26    27    1
    28    26    28   ar
    29     6     1   ar
    30    28    22   ar
    31    18    12   ar
    32    10    11    1
    33    30    31    1
@<TRIPOS>MOLECULE
*****
 31 33 0 0 0
SMALL
GASTEIGER

@<TRIPOS>ATOM
      1 C         139.6427  144.1618  164.1322 C.ar    1  UNL1        0.1042
      2 C         139.9651  144.8958  162.8644 C.ar    1  UNL1        0.0335
      3 C         140.7529  144.2162  161.7839 C.ar    1  UNL1        0.1261
      4 C         141.2183  142.8026  161.9712 C.ar    1  UNL1        0.0234
      5 C         140.8958  142.0686  163.2390 C.ar    1  UNL1        0.0396
      6 C         140.1080  142.7482  164.3195 C.ar    1  UNL1        0.1549
      7 S         141.0753  144.9503  160.5161 S.O2    1  UNL1        0.0747
      8 O         142.4246  144.2959  160.4805 O.2     1  UNL1       -0.1499
      9 O         139.7261  145.6046  160.5518 O.2     1  UNL1       -0.1499
     10 N         141.3978  145.6843  159.2484 N.pl3   1  UNL1       -0.1989
     11 H         142.1417  146.3289  159.2284 H       1  UNL1        0.1753
     12 C         140.5869  145.4361  158.0110 C.ar    1  UNL1        0.1472
     13 C         140.1129  146.5919  157.1807 C.ar    1  UNL1        0.0379
     14 C         139.3021  146.3438  155.9434 C.ar    1  UNL1        0.0342
     15 C         138.9651  144.9399  155.5365 C.ar    1  UNL1        0.1593
     16 F         138.1542  144.6918  154.2992 F       1  UNL1       -0.2025
     17 C         139.4391  143.7841  156.3669 C.ar    1  UNL1        0.1299
     18 N         140.2500  144.0323  157.6042 N.ar    1  UNL1       -0.2256
     19 N         138.0670  145.5211  166.2932 N.1     1  UNL1       -0.1907
     20 C         138.8548  144.8415  165.2127 C.1     1  UNL1        0.1035
     21 O         139.7856  142.0142  165.5873 O.3     1  UNL1       -0.4528
     22 C         140.7727  141.9985  166.7166 C.ar    1  UNL1        0.1462
     23 C         142.2199  142.2908  166.4519 C.ar    1  UNL1        0.0373
     24 C         143.2070  142.2751  167.5812 C.ar    1  UNL1        0.0021
     25 C         142.7469  141.9671  168.9752 C.ar    1  UNL1        0.0177
     26 C         141.2997  141.6747  169.2400 C.ar    1  UNL1        0.0591
     27 CL        140.8396  141.3666  170.6340 Cl      1  UNL1       -0.0824
     28 C         140.3126  141.6904  168.1106 C.ar    1  UNL1        0.0486
     29 C         143.7340  141.9513  170.1046 C.3     1  UNL1        0.1644
     30 O         144.8354  142.9685  170.1522 O.3     1  UNL1       -0.3772
     31 H         145.4395  142.8262  169.4067 H       1  UNL1        0.2109
@<TRIPOS>BOND
     1    19    20    3
     2    20     1    1
     3     1     2   ar
     4     2     3   ar
     5     3     7    1
     6     7     8    2
     7     7     9    2
     8     7    10    1
     9    10    12    1
    10    12    13   ar
    11    13    14   ar
    12    14    15   ar
    13    15    16    1
    14    15    17   ar
    15    17    18   ar
    16     3     4   ar
    17     4     5   ar
    18     5     6   ar
    19     6    21    1
    20    21    22    1
    21    22    23   ar
    22    23    24   ar
    23    24    25   ar
    24    25    29    1
    25    29    30    1
    26    25    26   ar
    27    26    27    1
    28    26    28   ar
    29     6     1   ar
    30    28    22   ar
    31    18    12   ar
    32    10    11    1
    33    30    31    1
@<TRIPOS>MOLECULE
*****
 31 33 0 0 0
SMALL
GASTEIGER

@<TRIPOS>ATOM
      1 C         141.1325  140.6471  162.9031 C.ar    1  UNL1        0.1042
      2 C         141.2238  141.7960  161.9430 C.ar    1  UNL1        0.0335
      3 C         141.3626  143.1969  162.4609 C.ar    1  UNL1        0.1261
      4 C         141.4102  143.4489  163.9388 C.ar    1  UNL1        0.0234
      5 C         141.3189  142.3001  164.8988 C.ar    1  UNL1        0.0396
      6 C         141.1801  140.8991  164.3809 C.ar    1  UNL1        0.1549
      7 S         141.4539  144.3458  161.5008 S.O2    1  UNL1        0.0747
      8 O         142.8152  143.8817  161.0749 O.2     1  UNL1       -0.1499
      9 O         140.0926  144.8099  161.9267 O.2     1  UNL1       -0.1499
     10 N         141.5452  145.4946  160.5407 N.pl3   1  UNL1       -0.1989
     11 H         141.7515  146.3983  160.8725 H       1  UNL1        0.1753
     12 C         141.3222  145.2667  159.0749 C.ar    1  UNL1        0.1472
     13 C         140.1570  144.4430  158.6127 C.ar    1  UNL1        0.0379
     14 C         139.9341  144.2151  157.1470 C.ar    1  UNL1        0.0342
     15 C         140.8764  144.8109  156.1435 C.ar    1  UNL1        0.1593
     16 F         140.6534  144.5829  154.6777 F       1  UNL1       -0.2025
     17 C         142.0416  145.6346  156.6057 C.ar    1  UNL1        0.1299
     18 N         142.2645  145.8625  158.0714 N.ar    1  UNL1       -0.2256
     19 N         140.8548  137.8453  161.8674 N.1     1  UNL1       -0.1907
     20 C         140.9937  139.2462  162.3852 C.1     1  UNL1        0.1035
     21 O         141.0888  139.7502  165.3411 O.3     1  UNL1       -0.4528
     22 C         141.2220  139.9925  166.8153 C.ar    1  UNL1        0.1462
     23 C         142.5817  140.0496  167.4462 C.ar    1  UNL1        0.0373
     24 C         142.7149  140.2918  168.9205 C.ar    1  UNL1        0.0021
     25 C         141.4884  140.4769  169.7640 C.ar    1  UNL1        0.0177
     26 C         140.1287  140.4198  169.1332 C.ar    1  UNL1        0.0591
     27 CL        138.9022  140.6049  169.9766 Cl      1  UNL1       -0.0824
     28 C         139.9955  140.1775  167.6588 C.ar    1  UNL1        0.0486
     29 C         141.6216  140.7191  171.2382 C.3     1  UNL1        0.1644
     30 O         141.9678  142.0878  171.7452 O.3     1  UNL1       -0.3772
     31 H         142.8654  142.3205  171.4607 H       1  UNL1        0.2109
@<TRIPOS>BOND
     1    19    20    3
     2    20     1    1
     3     1     2   ar
     4     2     3   ar
     5     3     7    1
     6     7     8    2
     7     7     9    2
     8     7    10    1
     9    10    12    1
    10    12    13   ar
    11    13    14   ar
    12    14    15   ar
    13    15    16    1
    14    15    17   ar
    15    17    18   ar
    16     3     4   ar
    17     4     5   ar
    18     5     6   ar
    19     6    21    1
    20    21    22    1
    21    22    23   ar
    22    23    24   ar
    23    24    25   ar
    24    25    29    1
    25    29    30    1
    26    25    26   ar
    27    26    27    1
    28    26    28   ar
    29     6     1   ar
    30    28    22   ar
    31    18    12   ar
    32    10    11    1
    33    30    31    1
@<TRIPOS>MOLECULE
*****
 31 33 0 0 0
SMALL
GASTEIGER

@<TRIPOS>ATOM
      1 C         141.5638  138.3849  164.3391 C.ar    1  UNL1        0.1042
      2 C         141.8274  138.4257  162.8631 C.ar    1  UNL1        0.0335
      3 C         143.1582  138.8916  162.3514 C.ar    1  UNL1        0.1261
      4 C         144.2255  139.3168  163.3159 C.ar    1  UNL1        0.0234
      5 C         143.9619  139.2760  164.7919 C.ar    1  UNL1        0.0396
      6 C         142.6311  138.8100  165.3036 C.ar    1  UNL1        0.1549
      7 S         143.4218  138.9325  160.8753 S.O2    1  UNL1        0.0747
      8 O         143.6152  137.4450  160.8688 O.2     1  UNL1       -0.1499
      9 O         143.2283  140.4199  160.8818 O.2     1  UNL1       -0.1499
     10 N         143.6853  138.9732  159.3992 N.pl3   1  UNL1       -0.1989
     11 H         144.5029  139.4017  159.0568 H       1  UNL1        0.1753
     12 C         142.7032  138.3612  158.4448 C.ar    1  UNL1        0.1472
     13 C         141.2363  138.6328  158.6012 C.ar    1  UNL1        0.0379
     14 C         140.2543  138.0208  157.6469 C.ar    1  UNL1        0.0342
     15 C         140.7391  137.1370  156.5360 C.ar    1  UNL1        0.1593
     16 F         139.7570  136.5250  155.5816 F       1  UNL1       -0.2025
     17 C         142.2059  136.8654  156.3795 C.ar    1  UNL1        0.1299
     18 N         143.1880  137.4774  157.3339 N.ar    1  UNL1       -0.2256
     19 N         138.9022  137.4529  165.3624 N.1     1  UNL1       -0.1907
     20 C         140.2330  137.9189  164.8508 C.1     1  UNL1        0.1035
     21 O         142.3675  138.7692  166.7797 O.3     1  UNL1       -0.4528
     22 C         141.9413  140.0138  167.5002 C.ar    1  UNL1        0.1462
     23 C         140.5599  140.5622  167.2972 C.ar    1  UNL1        0.0373
     24 C         140.1337  141.8068  168.0176 C.ar    1  UNL1        0.0021
     25 C         141.0888  142.5032  168.9411 C.ar    1  UNL1        0.0177
     26 C         142.4701  141.9550  169.1441 C.ar    1  UNL1        0.0591
     27 CL        143.4252  142.6514  170.0676 Cl      1  UNL1       -0.0824
     28 C         142.8964  140.7103  168.4236 C.ar    1  UNL1        0.0486
     29 C         140.6625  143.7479  169.6615 C.3     1  UNL1        0.1644
     30 O         139.6379  143.6684  170.7542 O.3     1  UNL1       -0.3772
     31 H         138.7853  143.3981  170.3789 H       1  UNL1        0.2109
@<TRIPOS>BOND
     1    19    20    3
     2    20     1    1
     3     1     2   ar
     4     2     3   ar
     5     3     7    1
     6     7     8    2
     7     7     9    2
     8     7    10    1
     9    10    12    1
    10    12    13   ar
    11    13    14   ar
    12    14    15   ar
    13    15    16    1
    14    15    17   ar
    15    17    18   ar
    16     3     4   ar
    17     4     5   ar
    18     5     6   ar
    19     6    21    1
    20    21    22    1
    21    22    23   ar
    22    23    24   ar
    23    24    25   ar
    24    25    29    1
    25    29    30    1
    26    25    26   ar
    27    26    27    1
    28    26    28   ar
    29     6     1   ar
    30    28    22   ar
    31    18    12   ar
    32    10    11    1
    33    30    31    1
@<TRIPOS>MOLECULE
*****
 31 33 0 0 0
SMALL
GASTEIGER

@<TRIPOS>ATOM
      1 C         138.2918  140.2844  163.6618 C.ar    1  UNL1        0.1042
      2 C         138.5009  140.5063  165.1304 C.ar    1  UNL1        0.0335
      3 C         138.8427  139.3499  166.0225 C.ar    1  UNL1        0.1261
      4 C         138.9755  137.9716  165.4460 C.ar    1  UNL1        0.0234
      5 C         138.7665  137.7496  163.9773 C.ar    1  UNL1        0.0396
      6 C         138.4247  138.9060  163.0852 C.ar    1  UNL1        0.1549
      7 S         139.0517  139.5719  167.4913 S.O2    1  UNL1        0.0747
      8 O         140.2988  140.3513  167.1959 O.2     1  UNL1       -0.1499
      9 O         137.8046  138.7926  167.7866 O.2     1  UNL1       -0.1499
     10 N         139.2608  139.7939  168.9599 N.pl3   1  UNL1       -0.1989
     11 H         138.7211  139.2950  169.6149 H       1  UNL1        0.1753
     12 C         140.2922  140.7762  169.4306 C.ar    1  UNL1        0.1472
     13 C         139.9603  142.2374  169.4986 C.ar    1  UNL1        0.0379
     14 C         140.9917  143.2196  169.9693 C.ar    1  UNL1        0.0342
     15 C         142.3549  142.7406  170.3720 C.ar    1  UNL1        0.1593
     16 F         143.3862  143.7228  170.8428 F       1  UNL1       -0.2025
     17 C         142.6867  141.2794  170.3041 C.ar    1  UNL1        0.1299
     18 N         141.6554  140.2972  169.8334 N.ar    1  UNL1       -0.2256
     19 N         137.6082  142.5972  161.8775 N.1     1  UNL1       -0.1907
     20 C         137.9500  141.4408  162.7696 C.1     1  UNL1        0.1035
     21 O         138.2156  138.6840  161.6165 O.3     1  UNL1       -0.4528
     22 C         139.3924  138.6600  160.6866 C.ar    1  UNL1        0.1462
     23 C         139.2265  139.0793  159.2559 C.ar    1  UNL1        0.0373
     24 C         140.4032  139.0553  158.3261 C.ar    1  UNL1        0.0021
     25 C         141.7459  138.6121  158.8269 C.ar    1  UNL1        0.0177
     26 C         141.9119  138.1929  160.2575 C.ar    1  UNL1        0.0591
     27 CL        143.2546  137.7498  160.7582 Cl      1  UNL1       -0.0824
     28 C         140.7351  138.2169  161.1874 C.ar    1  UNL1        0.0486
     29 C         142.9226  138.5882  157.8970 C.3     1  UNL1        0.1644
     30 O         143.9927  139.6328  158.0144 O.3     1  UNL1       -0.3772
     31 H         143.6238  140.5006  157.7870 H       1  UNL1        0.2109
@<TRIPOS>BOND
     1    19    20    3
     2    20     1    1
     3     1     2   ar
     4     2     3   ar
     5     3     7    1
     6     7     8    2
     7     7     9    2
     8     7    10    1
     9    10    12    1
    10    12    13   ar
    11    13    14   ar
    12    14    15   ar
    13    15    16    1
    14    15    17   ar
    15    17    18   ar
    16     3     4   ar
    17     4     5   ar
    18     5     6   ar
    19     6    21    1
    20    21    22    1
    21    22    23   ar
    22    23    24   ar
    23    24    25   ar
    24    25    29    1
    25    29    30    1
    26    25    26   ar
    27    26    27    1
    28    26    28   ar
    29     6     1   ar
    30    28    22   ar
    31    18    12   ar
    32    10    11    1
    33    30    31    1
@<TRIPOS>MOLECULE
*****
 31 33 0 0 0
SMALL
GASTEIGER

@<TRIPOS>ATOM
      1 C         140.4998  141.4541  163.8004 C.ar    1  UNL1        0.1042
      2 C         141.0072  142.3197  162.6853 C.ar    1  UNL1        0.0335
      3 C         140.7294  143.7937  162.6943 C.ar    1  UNL1        0.1261
      4 C         139.9443  144.4022  163.8182 C.ar    1  UNL1        0.0234
      5 C         139.4370  143.5366  164.9332 C.ar    1  UNL1        0.0396
      6 C         139.7147  142.0626  164.9243 C.ar    1  UNL1        0.1549
      7 S         141.2369  144.6593  161.5792 S.O2    1  UNL1        0.0747
      8 O         140.1398  145.6467  161.8464 O.2     1  UNL1       -0.1499
      9 O         142.3339  143.6719  161.3119 O.2     1  UNL1       -0.1499
     10 N         141.7442  145.5249  160.4641 N.pl3   1  UNL1       -0.1989
     11 H         142.3518  146.2743  160.6602 H       1  UNL1        0.1753
     12 C         141.3258  145.2486  159.0503 C.ar    1  UNL1        0.1472
     13 C         140.1426  144.3683  158.7768 C.ar    1  UNL1        0.0379
     14 C         139.7243  144.0920  157.3630 C.ar    1  UNL1        0.0342
     15 C         140.4892  144.6962  156.2229 C.ar    1  UNL1        0.1593
     16 F         140.0708  144.4199  154.8091 F       1  UNL1       -0.2025
     17 C         141.6725  145.5765  156.4965 C.ar    1  UNL1        0.1299
     18 N         142.0908  145.8527  157.9102 N.ar    1  UNL1       -0.2256
     19 N         141.0553  138.5061  163.7825 N.1     1  UNL1       -0.1907
     20 C         140.7776  139.9801  163.7914 C.1     1  UNL1        0.1035
     21 O         139.2073  141.1970  166.0394 O.3     1  UNL1       -0.4528
     22 C         140.0126  141.0434  167.2955 C.ar    1  UNL1        0.1462
     23 C         139.5310  140.1365  168.3890 C.ar    1  UNL1        0.0373
     24 C         140.3363  139.9828  169.6451 C.ar    1  UNL1        0.0021
     25 C         141.6233  140.7360  169.8078 C.ar    1  UNL1        0.0177
     26 C         142.1049  141.6428  168.7143 C.ar    1  UNL1        0.0591
     27 CL        143.3919  142.3960  168.8770 Cl      1  UNL1       -0.0824
     28 C         141.2996  141.7965  167.4582 C.ar    1  UNL1        0.0486
     29 C         142.4286  140.5823  171.0638 C.3     1  UNL1        0.1644
     30 O         143.5364  139.5729  171.1257 O.3     1  UNL1       -0.3772
     31 H         143.1638  138.6796  171.0615 H       1  UNL1        0.2109
@<TRIPOS>BOND
     1    19    20    3
     2    20     1    1
     3     1     2   ar
     4     2     3   ar
     5     3     7    1
     6     7     8    2
     7     7     9    2
     8     7    10    1
     9    10    12    1
    10    12    13   ar
    11    13    14   ar
    12    14    15   ar
    13    15    16    1
    14    15    17   ar
    15    17    18   ar
    16     3     4   ar
    17     4     5   ar
    18     5     6   ar
    19     6    21    1
    20    21    22    1
    21    22    23   ar
    22    23    24   ar
    23    24    25   ar
    24    25    29    1
    25    29    30    1
    26    25    26   ar
    27    26    27    1
    28    26    28   ar
    29     6     1   ar
    30    28    22   ar
    31    18    12   ar
    32    10    11    1
    33    30    31    1
@<TRIPOS>MOLECULE
*****
 31 33 0 0 0
SMALL
GASTEIGER

@<TRIPOS>ATOM
      1 C         139.5959  139.3533  163.6053 C.ar    1  UNL1        0.1042
      2 C         139.4452  140.0435  162.2821 C.ar    1  UNL1        0.0335
      3 C         138.6090  141.2841  162.1742 C.ar    1  UNL1        0.1261
      4 C         137.9235  141.8346  163.3895 C.ar    1  UNL1        0.0234
      5 C         138.0741  141.1444  164.7127 C.ar    1  UNL1        0.0396
      6 C         138.9103  139.9038  164.8206 C.ar    1  UNL1        0.1549
      7 S         138.4584  141.9743  160.8509 S.O2    1  UNL1        0.0747
      8 O         137.6034  143.0245  161.4960 O.2     1  UNL1       -0.1499
      9 O         139.3134  140.9242  160.2058 O.2     1  UNL1       -0.1499
     10 N         138.3078  142.6645  159.5277 N.pl3   1  UNL1       -0.1989
     11 H         137.5039  142.5101  158.9807 H       1  UNL1        0.1753
     12 C         139.3819  143.5900  159.0379 C.ar    1  UNL1        0.1472
     13 C         139.8604  143.4993  157.6192 C.ar    1  UNL1        0.0379
     14 C         140.9345  144.4248  157.1295 C.ar    1  UNL1        0.0342
     15 C         141.5301  145.4408  158.0584 C.ar    1  UNL1        0.1593
     16 F         142.6042  146.3663  157.5686 F       1  UNL1       -0.2025
     17 C         141.0515  145.5314  159.4771 C.ar    1  UNL1        0.1299
     18 N         139.9775  144.6060  159.9669 N.ar    1  UNL1       -0.2256
     19 N         141.2682  136.8721  163.8211 N.1     1  UNL1       -0.1907
     20 C         140.4320  138.1127  163.7132 C.1     1  UNL1        0.1035
     21 O         139.0609  139.2136  166.1439 O.3     1  UNL1       -0.4528
     22 C         139.6620  139.9452  167.3073 C.ar    1  UNL1        0.1462
     23 C         138.9674  139.9394  168.6368 C.ar    1  UNL1        0.0373
     24 C         139.5684  140.6710  169.8002 C.ar    1  UNL1        0.0021
     25 C         140.8640  141.4085  169.6341 C.ar    1  UNL1        0.0177
     26 C         141.5585  141.4144  168.3046 C.ar    1  UNL1        0.0591
     27 CL        142.8541  142.1519  168.1385 Cl      1  UNL1       -0.0824
     28 C         140.9575  140.6827  167.1411 C.ar    1  UNL1        0.0486
     29 C         141.4650  142.1402  170.7974 C.3     1  UNL1        0.1644
     30 O         142.2495  141.3887  171.8318 O.3     1  UNL1       -0.3772
     31 H         141.6600  140.7831  172.3079 H       1  UNL1        0.2109
@<TRIPOS>BOND
     1    19    20    3
     2    20     1    1
     3     1     2   ar
     4     2     3   ar
     5     3     7    1
     6     7     8    2
     7     7     9    2
     8     7    10    1
     9    10    12    1
    10    12    13   ar
    11    13    14   ar
    12    14    15   ar
    13    15    16    1
    14    15    17   ar
    15    17    18   ar
    16     3     4   ar
    17     4     5   ar
    18     5     6   ar
    19     6    21    1
    20    21    22    1
    21    22    23   ar
    22    23    24   ar
    23    24    25   ar
    24    25    29    1
    25    29    30    1
    26    25    26   ar
    27    26    27    1
    28    26    28   ar
    29     6     1   ar
    30    28    22   ar
    31    18    12   ar
    32    10    11    1
    33    30    31    1
@<TRIPOS>MOLECULE
*****
 31 33 0 0 0
SMALL
GASTEIGER

@<TRIPOS>ATOM
      1 C         142.8436  143.1375  164.1338 C.ar    1  UNL1        0.1042
      2 C         142.2775  144.0620  163.0971 C.ar    1  UNL1        0.0335
      3 C         141.1540  143.6027  162.2159 C.ar    1  UNL1        0.1261
      4 C         140.5965  142.2189  162.3713 C.ar    1  UNL1        0.0234
      5 C         141.1626  141.2944  163.4079 C.ar    1  UNL1        0.0396
      6 C         142.2862  141.7537  164.2892 C.ar    1  UNL1        0.1549
      7 S         140.5878  144.5273  161.1791 S.O2    1  UNL1        0.0747
      8 O         139.2111  144.3022  161.7303 O.2     1  UNL1       -0.1499
      9 O         141.9646  144.7524  160.6280 O.2     1  UNL1       -0.1499
     10 N         140.0217  145.4518  160.1425 N.pl3   1  UNL1       -0.1989
     11 H         139.6242  146.3108  160.4134 H       1  UNL1        0.1753
     12 C         140.0611  145.0676  158.6930 C.ar    1  UNL1        0.1472
     13 C         140.4757  146.0743  157.6613 C.ar    1  UNL1        0.0379
     14 C         140.5151  145.6901  156.2119 C.ar    1  UNL1        0.0342
     15 C         140.1399  144.2991  155.7943 C.ar    1  UNL1        0.1593
     16 F         140.1793  143.9149  154.3448 F       1  UNL1       -0.2025
     17 C         139.7253  143.2924  156.8260 C.ar    1  UNL1        0.1299
     18 N         139.6859  143.6766  158.2754 N.ar    1  UNL1       -0.2256
     19 N         145.0907  144.0562  165.8963 N.1     1  UNL1       -0.1907
     20 C         143.9672  143.5969  165.0151 C.1     1  UNL1        0.1035
     21 O         142.8523  140.8291  165.3259 O.3     1  UNL1       -0.4528
     22 C         142.1537  140.6608  166.6425 C.ar    1  UNL1        0.1462
     23 C         140.8967  141.4281  166.9281 C.ar    1  UNL1        0.0373
     24 C         140.1981  141.2598  168.2447 C.ar    1  UNL1        0.0021
     25 C         140.7563  140.3243  169.2758 C.ar    1  UNL1        0.0177
     26 C         142.0132  139.5570  168.9903 C.ar    1  UNL1        0.0591
     27 CL        142.5714  138.6215  170.0214 Cl      1  UNL1       -0.0824
     28 C         142.7119  139.7253  167.6736 C.ar    1  UNL1        0.0486
     29 C         140.0577  140.1560  170.5925 C.3     1  UNL1        0.1644
     30 O         140.6684  140.7165  171.8427 O.3     1  UNL1       -0.3772
     31 H         141.4954  140.2481  172.0367 H       1  UNL1        0.2109
@<TRIPOS>BOND
     1    19    20    3
     2    20     1    1
     3     1     2   ar
     4     2     3   ar
     5     3     7    1
     6     7     8    2
     7     7     9    2
     8     7    10    1
     9    10    12    1
    10    12    13   ar
    11    13    14   ar
    12    14    15   ar
    13    15    16    1
    14    15    17   ar
    15    17    18   ar
    16     3     4   ar
    17     4     5   ar
    18     5     6   ar
    19     6    21    1
    20    21    22    1
    21    22    23   ar
    22    23    24   ar
    23    24    25   ar
    24    25    29    1
    25    29    30    1
    26    25    26   ar
    27    26    27    1
    28    26    28   ar
    29     6     1   ar
    30    28    22   ar
    31    18    12   ar
    32    10    11    1
    33    30    31    1
