@<TRIPOS>MOLECULE
*****
 30 34 0 0 0
SMALL
GASTEIGER

@<TRIPOS>ATOM
      1 N         138.9778  139.0130  164.5833 N.ar    1  UNL1       -0.2967
      2 C         139.4331  140.2336  165.3269 C.ar    1  UNL1        0.1480
      3 N         139.1579  141.4305  164.4657 N.ar    1  UNL1       -0.2223
      4 C         138.5325  140.9495  163.1898 C.ar    1  UNL1        0.1482
      5 C         138.0501  141.6791  161.9712 C.ar    1  UNL1        0.1511
      6 N         137.4563  140.9147  160.8254 N.ar    1  UNL1       -0.2076
      7 C         137.3450  139.4206  160.8981 C.ar    1  UNL1        0.2015
      8 N         137.8274  138.6910  162.1167 N.ar    1  UNL1       -0.2048
      9 C         138.4212  139.4555  163.2625 C.ar    1  UNL1        0.1672
     10 C         140.0545  140.2537  166.6920 C.ar    1  UNL1        0.0725
     11 C         141.5033  140.6078  166.8515 C.ar    1  UNL1        0.1048
     12 N         142.1246  140.6279  168.2165 N.ar    1  UNL1       -0.2290
     13 C         141.2971  140.2938  169.4222 C.ar    1  UNL1        0.1396
     14 C         141.9184  140.3140  170.7874 C.3     1  UNL1        0.0737
     15 N         139.8482  139.9397  169.2628 N.ar    1  UNL1       -0.2290
     16 C         139.2269  139.9196  167.8977 C.ar    1  UNL1        0.1048
     17 C         138.0486  137.0794  166.0490 C.3     1  UNL1        0.0266
     18 C         139.0639  137.5982  165.0743 C.3     1  UNL1        0.1090
     19 N         138.1614  143.1733  161.8985 N.pl3   1  UNL1       -0.3167
     20 H         137.3794  143.7133  161.6415 H       1  UNL1        0.1482
     21 C         139.4644  143.8446  162.2174 C.3     1  UNL1        0.0919
     22 C         139.6318  145.1365  162.9611 C.3     1  UNL1        0.0428
     23 C         141.0995  145.4323  163.0519 C.3     1  UNL1        0.0952
     24 N         141.8393  144.3232  162.3644 N.am    1  UNL1       -0.2778
     25 C         143.3281  144.2144  162.2183 C.2     1  UNL1        0.2252
     26 O         144.2175  145.2789  162.7893 O.2     1  UNL1       -0.2749
     27 C         140.8287  143.3420  161.8487 C.3     1  UNL1        0.1128
     28 C         143.9276  143.0412  161.5013 C.3     1  UNL1        0.0767
     29 C         144.5100  142.4381  160.2574 C.3     1  UNL1        0.0096
     30 C         144.3836  141.6121  161.5031 C.3     1  UNL1        0.0096
@<TRIPOS>BOND
     1    17    18    1
     2    18     1    1
     3     1     2   ar
     4     2    10    1
     5    10    11   ar
     6    11    12   ar
     7    12    13   ar
     8    13    14    1
     9    13    15   ar
    10    15    16   ar
    11     2     3   ar
    12     3     4   ar
    13     4     5   ar
    14     5    19    1
    15    21    19    1
    16    21    22    1
    17    22    23    1
    18    23    24    1
    19    24    25   am
    20    25    26    2
    21    25    28    1
    22    28    29    1
    23    29    30    1
    24    24    27    1
    25     5     6   ar
    26     6     7   ar
    27     7     8   ar
    28     8     9   ar
    29     9     1   ar
    30    16    10   ar
    31     9     4   ar
    32    27    21    1
    33    30    28    1
    34    19    20    1
@<TRIPOS>MOLECULE
*****
 30 34 0 0 0
SMALL
GASTEIGER

@<TRIPOS>ATOM
      1 N         140.0304  138.3660  164.3672 N.ar    1  UNL1       -0.2967
      2 C         141.0570  139.3508  164.8431 C.ar    1  UNL1        0.1480
      3 N         141.5815  140.0882  163.6468 N.ar    1  UNL1       -0.2223
      4 C         140.8791  139.5591  162.4316 C.ar    1  UNL1        0.1482
      5 C         140.9885  139.9091  160.9771 C.ar    1  UNL1        0.1511
      6 N         140.1394  139.1948  159.9678 N.ar    1  UNL1       -0.2076
      7 C         139.1808  138.1305  160.4130 C.ar    1  UNL1        0.2015
      8 N         139.0713  137.7805  161.8675 N.ar    1  UNL1       -0.2048
      9 C         139.9205  138.4948  162.8768 C.ar    1  UNL1        0.1672
     10 C         141.4840  139.5611  166.2656 C.ar    1  UNL1        0.0725
     11 C         140.6862  140.4600  167.1631 C.ar    1  UNL1        0.1048
     12 N         141.1133  140.6703  168.5855 N.ar    1  UNL1       -0.2290
     13 C         142.3382  139.9818  169.1105 C.ar    1  UNL1        0.1396
     14 C         142.7652  140.1921  170.5330 C.3     1  UNL1        0.0737
     15 N         143.1360  139.0829  168.2130 N.ar    1  UNL1       -0.2290
     16 C         142.7089  138.8726  166.7906 C.ar    1  UNL1        0.1048
     17 C         138.1723  137.9409  166.1325 C.3     1  UNL1        0.0266
     18 C         139.2507  137.4188  165.2301 C.3     1  UNL1        0.1090
     19 N         141.9472  140.9735  160.5319 N.pl3   1  UNL1       -0.3167
     20 H         142.8193  140.7222  160.1504 H       1  UNL1        0.1482
     21 C         141.5771  142.4207  160.6679 C.3     1  UNL1        0.0919
     22 C         142.0255  143.5339  159.7680 C.3     1  UNL1        0.0428
     23 C         141.4191  144.8100  160.2716 C.3     1  UNL1        0.0952
     24 N         140.5959  144.4856  161.4829 N.am    1  UNL1       -0.2778
     25 C         139.8125  145.4658  162.3049 C.2     1  UNL1        0.2252
     26 O         139.8093  146.9198  161.9364 O.2     1  UNL1       -0.2749
     27 C         140.6935  143.0090  161.7278 C.3     1  UNL1        0.1128
     28 C         139.0326  144.9919  163.4952 C.3     1  UNL1        0.0767
     29 C         137.8419  144.2833  164.0699 C.3     1  UNL1        0.0096
     30 C         138.8722  144.8796  164.9825 C.3     1  UNL1        0.0096
@<TRIPOS>BOND
     1    17    18    1
     2    18     1    1
     3     1     2   ar
     4     2    10    1
     5    10    11   ar
     6    11    12   ar
     7    12    13   ar
     8    13    14    1
     9    13    15   ar
    10    15    16   ar
    11     2     3   ar
    12     3     4   ar
    13     4     5   ar
    14     5    19    1
    15    21    19    1
    16    21    22    1
    17    22    23    1
    18    23    24    1
    19    24    25   am
    20    25    26    2
    21    25    28    1
    22    28    29    1
    23    29    30    1
    24    24    27    1
    25     5     6   ar
    26     6     7   ar
    27     7     8   ar
    28     8     9   ar
    29     9     1   ar
    30    16    10   ar
    31     9     4   ar
    32    27    21    1
    33    30    28    1
    34    19    20    1
@<TRIPOS>MOLECULE
*****
 30 34 0 0 0
SMALL
GASTEIGER

@<TRIPOS>ATOM
      1 N         139.4208  143.9853  164.0234 N.ar    1  UNL1       -0.2967
      2 C         140.3973  142.9972  164.5892 C.ar    1  UNL1        0.1480
      3 N         141.5491  142.8854  163.6348 N.ar    1  UNL1       -0.2223
      4 C         141.2844  143.8045  162.4792 C.ar    1  UNL1        0.1482
      5 C         142.0712  144.1101  161.2392 C.ar    1  UNL1        0.1511
      6 N         141.5427  145.0955  160.2395 N.ar    1  UNL1       -0.2076
      7 C         140.2273  145.7753  160.4797 C.ar    1  UNL1        0.2015
      8 N         139.4405  145.4696  161.7196 N.ar    1  UNL1       -0.2048
      9 C         139.9690  144.4842  162.7194 C.ar    1  UNL1        0.1672
     10 C         140.2482  142.2518  165.8823 C.ar    1  UNL1        0.0725
     11 C         139.5890  140.9045  165.8996 C.ar    1  UNL1        0.1048
     12 N         139.4399  140.1591  167.1927 N.ar    1  UNL1       -0.2290
     13 C         139.9499  140.7611  168.4685 C.ar    1  UNL1        0.1396
     14 C         139.8008  140.0156  169.7617 C.3     1  UNL1        0.0737
     15 N         140.6091  142.1083  168.4512 N.ar    1  UNL1       -0.2290
     16 C         140.7582  142.8537  167.1581 C.ar    1  UNL1        0.1048
     17 C         138.1268  145.1762  165.9358 C.3     1  UNL1        0.0266
     18 C         138.1237  144.4015  164.6514 C.3     1  UNL1        0.1090
     19 N         143.3866  143.4303  160.9990 N.pl3   1  UNL1       -0.3167
     20 H         144.2272  143.9294  161.1155 H       1  UNL1        0.1482
     21 C         143.4213  141.9900  160.5814 C.3     1  UNL1        0.0919
     22 C         143.9356  141.4631  159.2746 C.3     1  UNL1        0.0428
     23 C         143.7799  139.9712  159.2827 C.3     1  UNL1        0.0952
     24 N         143.1693  139.5761  160.5947 N.am    1  UNL1       -0.2778
     25 C         142.8384  138.1787  161.0279 C.2     1  UNL1        0.2252
     26 O         143.1185  137.0237  160.1127 O.2     1  UNL1       -0.2749
     27 C         142.9477  140.8238  161.3972 C.3     1  UNL1        0.1128
     28 C         142.2276  137.9363  162.3762 C.3     1  UNL1        0.0767
     29 C         142.1870  138.2055  163.8514 C.3     1  UNL1        0.0096
     30 C         141.2103  137.2473  163.2367 C.3     1  UNL1        0.0096
@<TRIPOS>BOND
     1    17    18    1
     2    18     1    1
     3     1     2   ar
     4     2    10    1
     5    10    11   ar
     6    11    12   ar
     7    12    13   ar
     8    13    14    1
     9    13    15   ar
    10    15    16   ar
    11     2     3   ar
    12     3     4   ar
    13     4     5   ar
    14     5    19    1
    15    21    19    1
    16    21    22    1
    17    22    23    1
    18    23    24    1
    19    24    25   am
    20    25    26    2
    21    25    28    1
    22    28    29    1
    23    29    30    1
    24    24    27    1
    25     5     6   ar
    26     6     7   ar
    27     7     8   ar
    28     8     9   ar
    29     9     1   ar
    30    16    10   ar
    31     9     4   ar
    32    27    21    1
    33    30    28    1
    34    19    20    1
@<TRIPOS>MOLECULE
*****
 30 34 0 0 0
SMALL
GASTEIGER

@<TRIPOS>ATOM
      1 N         139.6440  143.7246  163.6151 N.ar    1  UNL1       -0.2967
      2 C         140.6787  142.8230  164.2207 C.ar    1  UNL1        0.1480
      3 N         141.8476  142.7632  163.2827 N.ar    1  UNL1       -0.2223
      4 C         141.5354  143.6279  162.0973 C.ar    1  UNL1        0.1482
      5 C         142.3153  143.9510  160.8574 C.ar    1  UNL1        0.1511
      6 N         141.7334  144.8682  159.8230 N.ar    1  UNL1       -0.2076
      7 C         140.3715  145.4624  160.0286 C.ar    1  UNL1        0.2015
      8 N         139.5916  145.1393  161.2685 N.ar    1  UNL1       -0.2048
      9 C         140.1735  144.2221  162.3028 C.ar    1  UNL1        0.1672
     10 C         140.5643  142.1069  165.5338 C.ar    1  UNL1        0.0725
     11 C         141.3146  142.6111  166.7308 C.ar    1  UNL1        0.1048
     12 N         141.2002  141.8950  168.0439 N.ar    1  UNL1       -0.2290
     13 C         140.3357  140.6747  168.1599 C.ar    1  UNL1        0.1396
     14 C         140.2213  139.9586  169.4730 C.3     1  UNL1        0.0737
     15 N         139.5854  140.1706  166.9628 N.ar    1  UNL1       -0.2290
     16 C         139.6998  140.8867  165.6498 C.ar    1  UNL1        0.1048
     17 C         138.2479  144.7945  165.5272 C.3     1  UNL1        0.0266
     18 C         138.3135  144.0685  164.2163 C.3     1  UNL1        0.1090
     19 N         143.6772  143.3568  160.6519 N.pl3   1  UNL1       -0.3167
     20 H         144.4355  143.6624  161.2004 H       1  UNL1        0.1482
     21 C         143.8838  142.2969  159.6108 C.3     1  UNL1        0.0919
     22 C         143.1393  140.9983  159.5148 C.3     1  UNL1        0.0428
     23 C         143.6664  140.2483  158.3275 C.3     1  UNL1        0.0952
     24 N         144.7367  141.0836  157.6896 N.am    1  UNL1       -0.2778
     25 C         145.5329  140.7171  156.4723 C.2     1  UNL1        0.2252
     26 O         145.2862  139.4091  155.7807 O.2     1  UNL1       -0.2749
     27 C         144.8710  142.3496  158.4827 C.3     1  UNL1        0.1128
     28 C         146.5757  141.6585  155.9468 C.3     1  UNL1        0.0767
     29 C         146.9399  142.9382  155.2541 C.3     1  UNL1        0.0096
     30 C         148.0178  142.0094  155.7291 C.3     1  UNL1        0.0096
@<TRIPOS>BOND
     1    17    18    1
     2    18     1    1
     3     1     2   ar
     4     2    10    1
     5    10    11   ar
     6    11    12   ar
     7    12    13   ar
     8    13    14    1
     9    13    15   ar
    10    15    16   ar
    11     2     3   ar
    12     3     4   ar
    13     4     5   ar
    14     5    19    1
    15    21    19    1
    16    21    22    1
    17    22    23    1
    18    23    24    1
    19    24    25   am
    20    25    26    2
    21    25    28    1
    22    28    29    1
    23    29    30    1
    24    24    27    1
    25     5     6   ar
    26     6     7   ar
    27     7     8   ar
    28     8     9   ar
    29     9     1   ar
    30    16    10   ar
    31     9     4   ar
    32    27    21    1
    33    30    28    1
    34    19    20    1
@<TRIPOS>MOLECULE
*****
 30 34 0 0 0
SMALL
GASTEIGER

@<TRIPOS>ATOM
      1 N         139.2542  139.1686  165.3380 N.ar    1  UNL1       -0.2967
      2 C         140.5843  139.6868  165.7990 C.ar    1  UNL1        0.1480
      3 N         141.5287  139.6405  164.6345 N.ar    1  UNL1       -0.2223
      4 C         140.7822  139.0937  163.4539 C.ar    1  UNL1        0.1482
      5 C         141.2009  138.8237  162.0390 C.ar    1  UNL1        0.1511
      6 N         140.2140  138.2621  161.0590 N.ar    1  UNL1       -0.2076
      7 C         138.8084  137.9704  161.4938 C.ar    1  UNL1        0.2015
      8 N         138.3897  138.2404  162.9086 N.ar    1  UNL1       -0.2048
      9 C         139.3766  138.8021  163.8887 C.ar    1  UNL1        0.1672
     10 C         140.9123  140.1670  167.1817 C.ar    1  UNL1        0.0725
     11 C         140.0384  141.1877  167.8482 C.ar    1  UNL1        0.1048
     12 N         140.3665  141.6679  169.2309 N.ar    1  UNL1       -0.2290
     13 C         141.5685  141.1272  169.9471 C.ar    1  UNL1        0.1396
     14 C         141.8965  141.6074  171.3298 C.3     1  UNL1        0.0737
     15 N         142.4424  140.1064  169.2806 N.ar    1  UNL1       -0.2290
     16 C         142.1143  139.6263  167.8979 C.ar    1  UNL1        0.1048
     17 C         137.6693  137.7202  166.8009 C.3     1  UNL1        0.0266
     18 C         138.0187  139.0396  166.1788 C.3     1  UNL1        0.1090
     19 N         142.6066  139.1154  161.6042 N.pl3   1  UNL1       -0.3167
     20 H         143.1295  138.4263  161.1342 H       1  UNL1        0.1482
     21 C         143.2156  140.4570  161.8857 C.3     1  UNL1        0.0919
     22 C         144.6669  140.7285  162.1503 C.3     1  UNL1        0.0428
     23 C         144.8285  142.2020  162.3801 C.3     1  UNL1        0.0952
     24 N         143.4770  142.8412  162.2575 N.am    1  UNL1       -0.2778
     25 C         143.1753  144.3022  162.4131 C.2     1  UNL1        0.2252
     26 O         144.2814  145.2678  162.7201 O.2     1  UNL1       -0.2749
     27 C         142.4802  141.7627  161.9519 C.3     1  UNL1        0.1128
     28 C         141.7677  144.7976  162.2617 C.3     1  UNL1        0.0767
     29 C         140.6574  145.3111  161.3934 C.3     1  UNL1        0.0096
     30 C         140.4395  145.1422  162.8679 C.3     1  UNL1        0.0096
@<TRIPOS>BOND
     1    17    18    1
     2    18     1    1
     3     1     2   ar
     4     2    10    1
     5    10    11   ar
     6    11    12   ar
     7    12    13   ar
     8    13    14    1
     9    13    15   ar
    10    15    16   ar
    11     2     3   ar
    12     3     4   ar
    13     4     5   ar
    14     5    19    1
    15    21    19    1
    16    21    22    1
    17    22    23    1
    18    23    24    1
    19    24    25   am
    20    25    26    2
    21    25    28    1
    22    28    29    1
    23    29    30    1
    24    24    27    1
    25     5     6   ar
    26     6     7   ar
    27     7     8   ar
    28     8     9   ar
    29     9     1   ar
    30    16    10   ar
    31     9     4   ar
    32    27    21    1
    33    30    28    1
    34    19    20    1
@<TRIPOS>MOLECULE
*****
 30 34 0 0 0
SMALL
GASTEIGER

@<TRIPOS>ATOM
      1 N         140.6640  144.0355  160.5600 N.ar    1  UNL1       -0.2967
      2 C         141.4676  142.7811  160.3844 C.ar    1  UNL1        0.1480
      3 N         140.9254  141.7475  161.3264 N.ar    1  UNL1       -0.2223
      4 C         139.7866  142.3631  162.0844 C.ar    1  UNL1        0.1482
      5 C         138.8759  141.8186  163.1446 C.ar    1  UNL1        0.1511
      6 N         137.8037  142.6882  163.7312 N.ar    1  UNL1       -0.2076
      7 C         137.6422  144.1022  163.2576 C.ar    1  UNL1        0.2015
      8 N         138.5529  144.6467  162.1973 N.ar    1  UNL1       -0.2048
      9 C         139.6251  143.7771  161.6107 C.ar    1  UNL1        0.1672
     10 C         142.6125  142.5934  159.4335 C.ar    1  UNL1        0.0725
     11 C         144.0238  142.7351  159.9216 C.ar    1  UNL1        0.1048
     12 N         145.1685  142.5474  158.9707 N.ar    1  UNL1       -0.2290
     13 C         144.9021  142.2180  157.5318 C.ar    1  UNL1        0.1396
     14 C         146.0470  142.0303  156.5809 C.3     1  UNL1        0.0737
     15 N         143.4908  142.0763  157.0437 N.ar    1  UNL1       -0.2290
     16 C         142.3461  142.2640  157.9946 C.ar    1  UNL1        0.1048
     17 C         140.3528  145.4647  158.4128 C.3     1  UNL1        0.0266
     18 C         140.8642  145.3223  159.8158 C.3     1  UNL1        0.1090
     19 N         139.0374  140.4045  163.6183 N.pl3   1  UNL1       -0.3167
     20 H         139.2047  139.6839  162.9687 H       1  UNL1        0.1482
     21 C         138.9441  140.0884  165.0817 C.3     1  UNL1        0.0919
     22 C         138.1835  138.9480  165.6906 C.3     1  UNL1        0.0428
     23 C         138.3643  139.0120  167.1783 C.3     1  UNL1        0.0952
     24 N         139.2366  140.1921  167.4888 N.am    1  UNL1       -0.2778
     25 C         139.6738  140.6301  168.8552 C.2     1  UNL1        0.2252
     26 O         139.2337  139.8613  170.0657 O.2     1  UNL1       -0.2749
     27 C         139.5949  140.8574  166.1930 C.3     1  UNL1        0.1128
     28 C         140.5511  141.8367  169.0110 C.3     1  UNL1        0.0767
     29 C         140.7684  143.2263  169.5328 C.3     1  UNL1        0.0096
     30 C         141.8533  142.5374  168.7593 C.3     1  UNL1        0.0096
@<TRIPOS>BOND
     1    17    18    1
     2    18     1    1
     3     1     2   ar
     4     2    10    1
     5    10    11   ar
     6    11    12   ar
     7    12    13   ar
     8    13    14    1
     9    13    15   ar
    10    15    16   ar
    11     2     3   ar
    12     3     4   ar
    13     4     5   ar
    14     5    19    1
    15    21    19    1
    16    21    22    1
    17    22    23    1
    18    23    24    1
    19    24    25   am
    20    25    26    2
    21    25    28    1
    22    28    29    1
    23    29    30    1
    24    24    27    1
    25     5     6   ar
    26     6     7   ar
    27     7     8   ar
    28     8     9   ar
    29     9     1   ar
    30    16    10   ar
    31     9     4   ar
    32    27    21    1
    33    30    28    1
    34    19    20    1
@<TRIPOS>MOLECULE
*****
 30 34 0 0 0
SMALL
GASTEIGER

@<TRIPOS>ATOM
      1 N         140.0427  143.7261  159.0443 N.ar    1  UNL1       -0.2967
      2 C         140.2646  143.2204  160.4390 C.ar    1  UNL1        0.1480
      3 N         139.4006  142.0102  160.6361 N.ar    1  UNL1       -0.2223
      4 C         138.6448  141.7679  159.3633 C.ar    1  UNL1        0.1482
      5 C         137.6465  140.7186  158.9730 C.ar    1  UNL1        0.1511
      6 N         137.0450  140.7298  157.5990 N.ar    1  UNL1       -0.2076
      7 C         137.4418  141.7903  156.6152 C.ar    1  UNL1        0.2015
      8 N         138.4401  142.8396  157.0055 N.ar    1  UNL1       -0.2048
      9 C         139.0416  142.8284  158.3795 C.ar    1  UNL1        0.1672
     10 C         141.1883  143.8198  161.4576 C.ar    1  UNL1        0.0725
     11 C         142.6734  143.6904  161.2915 C.ar    1  UNL1        0.1048
     12 N         143.5970  144.2898  162.3101 N.ar    1  UNL1       -0.2290
     13 C         143.0355  145.0185  163.4949 C.ar    1  UNL1        0.1396
     14 C         143.9592  145.6179  164.5135 C.3     1  UNL1        0.0737
     15 N         141.5504  145.1479  163.6610 N.ar    1  UNL1       -0.2290
     16 C         140.6268  144.5485  162.6424 C.ar    1  UNL1        0.1048
     17 C         142.0471  144.7766  157.7681 C.3     1  UNL1        0.0266
     18 C         140.7055  144.9199  158.4234 C.3     1  UNL1        0.1090
     19 N         137.2496  139.6581  159.9568 N.pl3   1  UNL1       -0.3167
     20 H         136.3102  139.3702  160.0181 H       1  UNL1        0.1482
     21 C         138.2843  139.0362  160.8473 C.3     1  UNL1        0.0919
     22 C         139.5761  138.4186  160.4002 C.3     1  UNL1        0.0428
     23 C         140.2989  137.9235  161.6177 C.3     1  UNL1        0.0952
     24 N         139.4539  138.2350  162.8172 N.am    1  UNL1       -0.2778
     25 C         139.7942  137.9150  164.2426 C.2     1  UNL1        0.2252
     26 O         141.0831  137.2202  164.5681 O.2     1  UNL1       -0.2749
     27 C         138.2088  138.9227  162.3410 C.3     1  UNL1        0.1128
     28 C         138.8456  138.2899  165.3424 C.3     1  UNL1        0.0767
     29 C         137.9638  137.8926  166.4891 C.3     1  UNL1        0.0096
     30 C         138.0844  139.3365  166.1009 C.3     1  UNL1        0.0096
@<TRIPOS>BOND
     1    17    18    1
     2    18     1    1
     3     1     2   ar
     4     2    10    1
     5    10    11   ar
     6    11    12   ar
     7    12    13   ar
     8    13    14    1
     9    13    15   ar
    10    15    16   ar
    11     2     3   ar
    12     3     4   ar
    13     4     5   ar
    14     5    19    1
    15    21    19    1
    16    21    22    1
    17    22    23    1
    18    23    24    1
    19    24    25   am
    20    25    26    2
    21    25    28    1
    22    28    29    1
    23    29    30    1
    24    24    27    1
    25     5     6   ar
    26     6     7   ar
    27     7     8   ar
    28     8     9   ar
    29     9     1   ar
    30    16    10   ar
    31     9     4   ar
    32    27    21    1
    33    30    28    1
    34    19    20    1
@<TRIPOS>MOLECULE
*****
 30 34 0 0 0
SMALL
GASTEIGER

@<TRIPOS>ATOM
      1 N         143.7268  142.8239  160.1009 N.ar    1  UNL1       -0.2967
      2 C         142.4238  143.5575  160.2199 C.ar    1  UNL1        0.1480
      3 N         142.1203  143.7296  161.6788 N.ar    1  UNL1       -0.2223
      4 C         143.2358  143.1023  162.4614 C.ar    1  UNL1        0.1482
      5 C         143.4757  142.9685  163.9360 C.ar    1  UNL1        0.1511
      6 N         144.7084  142.2750  164.4355 N.ar    1  UNL1       -0.2076
      7 C         145.7012  141.7153  163.4603 C.ar    1  UNL1        0.2015
      8 N         145.4613  141.8491  161.9857 N.ar    1  UNL1       -0.2048
      9 C         144.2286  142.5426  161.4862 C.ar    1  UNL1        0.1672
     10 C         141.5736  144.0352  159.0801 C.ar    1  UNL1        0.0725
     11 C         140.8476  143.0442  158.2194 C.ar    1  UNL1        0.1048
     12 N         139.9975  143.5219  157.0796 N.ar    1  UNL1       -0.2290
     13 C         139.8733  144.9905  156.8007 C.ar    1  UNL1        0.1396
     14 C         139.0231  145.4682  155.6609 C.3     1  UNL1        0.0737
     15 N         140.5993  145.9814  157.6615 N.ar    1  UNL1       -0.2290
     16 C         141.4495  145.5037  158.8012 C.ar    1  UNL1        0.1048
     17 C         144.2364  141.0563  158.2663 C.3     1  UNL1        0.0266
     18 C         144.4083  142.4392  158.8213 C.3     1  UNL1        0.1090
     19 N         142.4828  143.5282  164.9112 N.pl3   1  UNL1       -0.3167
     20 H         142.4883  144.4898  165.1221 H       1  UNL1        0.1482
     21 C         141.4815  142.6227  165.5650 C.3     1  UNL1        0.0919
     22 C         140.0956  142.3358  165.0681 C.3     1  UNL1        0.0428
     23 C         139.4478  141.3810  166.0265 C.3     1  UNL1        0.0952
     24 N         140.4333  141.0777  167.1159 N.am    1  UNL1       -0.2778
     25 C         140.2026  140.1670  168.2852 C.2     1  UNL1        0.2252
     26 O         138.8869  139.4632  168.4393 O.2     1  UNL1       -0.2749
     27 C         141.6902  141.8452  166.8307 C.3     1  UNL1        0.1128
     28 C         141.2873  139.9601  169.3002 C.3     1  UNL1        0.0767
     29 C         142.0910  140.4617  170.4633 C.3     1  UNL1        0.0096
     30 C         142.3627  139.1002  169.8954 C.3     1  UNL1        0.0096
@<TRIPOS>BOND
     1    17    18    1
     2    18     1    1
     3     1     2   ar
     4     2    10    1
     5    10    11   ar
     6    11    12   ar
     7    12    13   ar
     8    13    14    1
     9    13    15   ar
    10    15    16   ar
    11     2     3   ar
    12     3     4   ar
    13     4     5   ar
    14     5    19    1
    15    21    19    1
    16    21    22    1
    17    22    23    1
    18    23    24    1
    19    24    25   am
    20    25    26    2
    21    25    28    1
    22    28    29    1
    23    29    30    1
    24    24    27    1
    25     5     6   ar
    26     6     7   ar
    27     7     8   ar
    28     8     9   ar
    29     9     1   ar
    30    16    10   ar
    31     9     4   ar
    32    27    21    1
    33    30    28    1
    34    19    20    1
@<TRIPOS>MOLECULE
*****
 30 34 0 0 0
SMALL
GASTEIGER

@<TRIPOS>ATOM
      1 N         139.8340  141.8628  160.1844 N.ar    1  UNL1       -0.2967
      2 C         140.1057  140.4117  160.4497 C.ar    1  UNL1        0.1480
      3 N         139.5161  140.0663  161.7850 N.ar    1  UNL1       -0.2223
      4 C         138.8800  141.3040  162.3449 C.ar    1  UNL1        0.1482
      5 C         138.1472  141.5634  163.6278 C.ar    1  UNL1        0.1511
      6 N         137.6110  142.9331  163.9215 N.ar    1  UNL1       -0.2076
      7 C         137.8075  144.0434  162.9323 C.ar    1  UNL1        0.2015
      8 N         138.5402  143.7840  161.6494 N.ar    1  UNL1       -0.2048
      9 C         139.0765  142.4143  161.3557 C.ar    1  UNL1        0.1672
     10 C         140.8384  139.4711  159.5394 C.ar    1  UNL1        0.0725
     11 C         142.3107  139.2475  159.7195 C.ar    1  UNL1        0.1048
     12 N         143.0433  138.3070  158.8093 N.ar    1  UNL1       -0.2290
     13 C         142.3037  137.5900  157.7189 C.ar    1  UNL1        0.1396
     14 C         143.0364  136.6494  156.8087 C.3     1  UNL1        0.0737
     15 N         140.8315  137.8136  157.5388 N.ar    1  UNL1       -0.2290
     16 C         140.0988  138.7541  158.4490 C.ar    1  UNL1        0.1048
     17 C         139.2129  143.0783  157.9738 C.3     1  UNL1        0.0266
     18 C         140.2473  142.6282  158.9624 C.3     1  UNL1        0.1090
     19 N         137.9507  140.4530  164.6170 N.pl3   1  UNL1       -0.3167
     20 H         137.0942  139.9688  164.6498 H       1  UNL1        0.1482
     21 C         139.0594  140.0804  165.5562 C.3     1  UNL1        0.0919
     22 C         138.9345  139.8998  167.0401 C.3     1  UNL1        0.0428
     23 C         140.2855  139.5307  167.5774 C.3     1  UNL1        0.0952
     24 N         141.2453  139.4832  166.4257 N.am    1  UNL1       -0.2778
     25 C         142.7063  139.1539  166.5085 C.2     1  UNL1        0.2252
     26 O         143.3286  138.8328  167.8350 O.2     1  UNL1       -0.2749
     27 C         140.4875  139.8229  165.1765 C.3     1  UNL1        0.1128
     28 C         143.5449  139.1456  165.2649 C.3     1  UNL1        0.0767
     29 C         143.6935  138.8585  163.8001 C.3     1  UNL1        0.0096
     30 C         144.8490  139.4184  164.5756 C.3     1  UNL1        0.0096
@<TRIPOS>BOND
     1    17    18    1
     2    18     1    1
     3     1     2   ar
     4     2    10    1
     5    10    11   ar
     6    11    12   ar
     7    12    13   ar
     8    13    14    1
     9    13    15   ar
    10    15    16   ar
    11     2     3   ar
    12     3     4   ar
    13     4     5   ar
    14     5    19    1
    15    21    19    1
    16    21    22    1
    17    22    23    1
    18    23    24    1
    19    24    25   am
    20    25    26    2
    21    25    28    1
    22    28    29    1
    23    29    30    1
    24    24    27    1
    25     5     6   ar
    26     6     7   ar
    27     7     8   ar
    28     8     9   ar
    29     9     1   ar
    30    16    10   ar
    31     9     4   ar
    32    27    21    1
    33    30    28    1
    34    19    20    1
